xflr5 v6.61

Plane Name
T1-86.1 m/s-Panel-Inviscid
QInf  =   86.100000 m/s
Alpha =    0.000000
Beta  =    0.000°
Phi   =    0.000°
Ctrl  =    0.000
CL    =    0.321443
Cy    =    0.000000
Cd    =    0.003289     ICd   =    0.003289     PCd   =    0.000000
Cl   = -4.79569e-16
Cm   =   -0.485346
ICn   =    0.000000     PCn   =    0.000000 
XCP   =    4.530797     YCP   =    0.000000     ZCP   =    0.467559  
XNP   =    0.000000
Bending = 297406.048243

Main Wing
  y-span        Chord      Ai         Cl        PCd          ICd        CmGeom    CmAirf@chord/4    XTrtop    XTrBot      XCP       BM
  -13.7265     1.3259    -5.106    0.135579    0.000000    0.012116   -0.818036   -0.059160     0.0000    0.0000    0.6271    0.0000
  -13.6328     1.3454    -3.245    0.213179    0.000000    0.012089   -1.153254   -0.086482     0.0000    0.0000    0.6351    3.6826
  -13.4459     1.3842    -1.989    0.268232    0.000000    0.009316   -1.342060   -0.098392     0.0000    0.0000    0.6107   46.0749
  -13.1671     1.4422    -1.298    0.304142    0.000000    0.006891   -1.431535   -0.105498     0.0000    0.0000    0.5920   221.5871
  -12.7984     1.5189    -0.925    0.327283    0.000000    0.005283   -1.435682   -0.109604     0.0000    0.0000    0.5795   697.6873
  -12.3423     1.6137    -0.710    0.341420    0.000000    0.004230   -1.377804   -0.111944     0.0000    0.0000    0.5720   1722.4136
  -11.8019     1.7261    -0.582    0.349158    0.000000    0.003547   -1.280999   -0.113249     0.0000    0.0000    0.5682   3627.8979
  -11.1809     1.8552    -0.508    0.352417    0.000000    0.003123   -1.163858   -0.113974     0.0000    0.0000    0.5672   6830.5197
  -10.4834     2.0002    -0.469    0.352546    0.000000    0.002884   -1.039420   -0.114378     0.0000    0.0000    0.5682   11827.7483
   -9.7144     2.1601    -0.453    0.350441    0.000000    0.002773   -0.916051   -0.114597     0.0000    0.0000    0.5709   19191.0063
   -8.8790     2.3338    -0.455    0.346666    0.000000    0.002752   -0.798717   -0.114711     0.0000    0.0000    0.5748   29553.6357
   -7.9830     2.5201    -0.468    0.341559    0.000000    0.002790   -0.690104   -0.114759     0.0000    0.0000    0.5800   43593.1855
   -7.0324     2.7178    -0.490    0.335294    0.000000    0.002868   -0.591401   -0.114765     0.0000    0.0000    0.5865   62007.6011
   -6.0338     2.9254    -0.519    0.327924    0.000000    0.002969   -0.502893   -0.114743     0.0000    0.0000    0.5943   85485.3232
   -4.9940     3.1416    -0.552    0.319402    0.000000    0.003079   -0.424352   -0.114699     0.0000    0.0000    0.6038   114669.7426
   -3.9200     3.3649    -0.588    0.309567    0.000000    0.003180   -0.355270   -0.114644     0.0000    0.0000    0.6153   150118.9337
   -2.8193     3.5938    -0.623    0.298099    0.000000    0.003245   -0.295015   -0.114573     0.0000    0.0000    0.6297   192261.5591
   -1.6993     3.8267    -0.643    0.284365    0.000000    0.003196   -0.242974   -0.114473     0.0000    0.0000    0.6482   241349.5814
   -0.5677     4.0620    -0.546    0.266699    0.000000    0.002551   -0.198783   -0.114431     0.0000    0.0000    0.6732   297406.0482
    0.5677     4.0620    -0.546    0.266699    0.000000    0.002551   -0.198783   -0.114431     0.0000    0.0000    0.6732   297406.0482
    1.6993     3.8267    -0.643    0.284365    0.000000    0.003196   -0.242974   -0.114473     0.0000    0.0000    0.6482   241349.5814
    2.8193     3.5938    -0.623    0.298099    0.000000    0.003245   -0.295015   -0.114573     0.0000    0.0000    0.6297   192261.5591
    3.9200     3.3649    -0.588    0.309567    0.000000    0.003180   -0.355270   -0.114644     0.0000    0.0000    0.6153   150118.9337
    4.9940     3.1416    -0.552    0.319402    0.000000    0.003079   -0.424352   -0.114699     0.0000    0.0000    0.6038   114669.7426
    6.0338     2.9254    -0.519    0.327924    0.000000    0.002969   -0.502893   -0.114743     0.0000    0.0000    0.5943   85485.3232
    7.0324     2.7178    -0.490    0.335294    0.000000    0.002868   -0.591401   -0.114765     0.0000    0.0000    0.5865   62007.6011
    7.9830     2.5201    -0.468    0.341559    0.000000    0.002790   -0.690104   -0.114759     0.0000    0.0000    0.5800   43593.1855
    8.8790     2.3338    -0.455    0.346666    0.000000    0.002752   -0.798717   -0.114711     0.0000    0.0000    0.5748   29553.6357
    9.7144     2.1601    -0.453    0.350441    0.000000    0.002773   -0.916051   -0.114597     0.0000    0.0000    0.5709   19191.0063
   10.4834     2.0002    -0.469    0.352546    0.000000    0.002884   -1.039420   -0.114378     0.0000    0.0000    0.5682   11827.7483
   11.1809     1.8552    -0.508    0.352417    0.000000    0.003123   -1.163858   -0.113974     0.0000    0.0000    0.5672   6830.5197
   11.8019     1.7261    -0.582    0.349158    0.000000    0.003547   -1.280999   -0.113249     0.0000    0.0000    0.5682   3627.8979
   12.3423     1.6137    -0.710    0.341420    0.000000    0.004230   -1.377804   -0.111944     0.0000    0.0000    0.5720   1722.4136
   12.7984     1.5189    -0.925    0.327283    0.000000    0.005283   -1.435682   -0.109604     0.0000    0.0000    0.5795   697.6873
   13.1671     1.4422    -1.298    0.304142    0.000000    0.006891   -1.431535   -0.105498     0.0000    0.0000    0.5920   221.5871
   13.4459     1.3842    -1.989    0.268232    0.000000    0.009316   -1.342060   -0.098392     0.0000    0.0000    0.6107   46.0749
   13.6328     1.3454    -3.245    0.213179    0.000000    0.012089   -1.153254   -0.086482     0.0000    0.0000    0.6351    3.6826
   13.7265     1.3259    -5.106    0.135579    0.000000    0.012116   -0.818036   -0.059160     0.0000    0.0000    0.6271    0.0000


Main Wing Cp Coefficients
 Panel     CtrlPt.x        CtrlPt.y        CtrlPt.z       Nx      Ny       Nz        Area       Cp
Main WingCp Coefficients
Strip 1
  13       7.426e+00      -1.371e+01       6.241e-01          -0.279          -0.110          -0.954       9.444e-04          0.1808
  14       7.388e+00      -1.371e+01       6.324e-01          -0.190          -0.090          -0.978       2.714e-03          0.1825
  15       7.314e+00      -1.371e+01       6.389e-01          -0.023          -0.049          -0.999       4.264e-03          0.1920
  16       7.209e+00      -1.371e+01       6.331e-01           0.114          -0.012          -0.993       5.657e-03          0.1691
  17       7.078e+00      -1.371e+01       6.106e-01           0.215           0.017          -0.976       6.819e-03          0.1053
  18       6.930e+00      -1.371e+01       5.795e-01           0.196           0.011          -0.981       7.447e-03         -0.0404
  19       6.772e+00      -1.372e+01       5.584e-01           0.070          -0.031          -0.997       7.530e-03         -0.1326
  20       6.615e+00      -1.372e+01       5.513e-01           0.018          -0.050          -0.999       7.294e-03         -0.1254
  21       6.467e+00      -1.372e+01       5.513e-01          -0.019          -0.064          -0.998       6.653e-03         -0.1319
  22       6.336e+00      -1.372e+01       5.564e-01          -0.062          -0.081          -0.995       5.636e-03         -0.1598
  23       6.231e+00      -1.371e+01       5.666e-01          -0.141          -0.114          -0.983       4.320e-03         -0.2113
  24       6.157e+00      -1.371e+01       5.828e-01          -0.319          -0.188          -0.929       2.843e-03         -0.2455
  25       6.119e+00      -1.371e+01       6.074e-01          -0.788          -0.373          -0.489       1.790e-03          0.4949
  26       6.119e+00      -1.371e+01       6.376e-01          -0.791          -0.329           0.516       1.805e-03          0.2268
  27       6.157e+00      -1.371e+01       6.617e-01          -0.298          -0.093           0.950       2.816e-03         -0.6054
  28       6.231e+00      -1.371e+01       6.768e-01          -0.134          -0.021           0.991       4.310e-03         -0.3489
  29       6.336e+00      -1.371e+01       6.869e-01          -0.065           0.008           0.998       5.630e-03         -0.2362
  30       6.467e+00      -1.371e+01       6.927e-01          -0.027           0.024           0.999       6.645e-03         -0.1822
  31       6.615e+00      -1.371e+01       6.950e-01          -0.004           0.032           0.999       7.283e-03         -0.1550
  32       6.772e+00      -1.371e+01       6.941e-01           0.015           0.039           0.999       7.501e-03         -0.1434
  33       6.930e+00      -1.371e+01       6.901e-01           0.037           0.046           0.998       7.287e-03         -0.1417
  34       7.078e+00      -1.371e+01       6.823e-01           0.070           0.056           0.996       6.658e-03         -0.1527
  35       7.209e+00      -1.371e+01       6.699e-01           0.124           0.071           0.990       5.661e-03         -0.1813
  36       7.314e+00      -1.371e+01       6.533e-01           0.198           0.090           0.976       4.354e-03         -0.2049
  37       7.388e+00      -1.371e+01       6.361e-01           0.272           0.108           0.956       2.772e-03         -0.1376
  38       7.426e+00      -1.371e+01       6.247e-01           0.331           0.121           0.936       9.621e-04         -0.0457
Strip 2
  39       7.403e+00      -1.362e+01       6.199e-01          -0.279          -0.110          -0.954       2.869e-03          0.2584
  40       7.365e+00      -1.362e+01       6.283e-01          -0.190          -0.090          -0.978       8.243e-03          0.2989
  41       7.290e+00      -1.362e+01       6.349e-01          -0.023          -0.049          -0.999       1.295e-02          0.3336
  42       7.183e+00      -1.362e+01       6.290e-01           0.114          -0.012          -0.993       1.718e-02          0.2858
  43       7.051e+00      -1.362e+01       6.062e-01           0.215           0.017          -0.976       2.071e-02          0.1688
  44       6.900e+00      -1.362e+01       5.746e-01           0.196           0.011          -0.981       2.262e-02         -0.0412
  45       6.741e+00      -1.362e+01       5.531e-01           0.070          -0.031          -0.997       2.287e-02         -0.1682
  46       6.581e+00      -1.362e+01       5.460e-01           0.018          -0.050          -0.999       2.215e-02         -0.1600
  47       6.430e+00      -1.362e+01       5.460e-01          -0.019          -0.064          -0.998       2.021e-02         -0.1689
  48       6.298e+00      -1.362e+01       5.512e-01          -0.062          -0.081          -0.995       1.712e-02         -0.2053
  49       6.191e+00      -1.362e+01       5.615e-01          -0.141          -0.114          -0.983       1.312e-02         -0.2557
  50       6.116e+00      -1.362e+01       5.779e-01          -0.319          -0.188          -0.929       8.637e-03         -0.2488
  51       6.078e+00      -1.362e+01       6.029e-01          -0.788          -0.373          -0.489       5.437e-03          0.5652
  52       6.078e+00      -1.362e+01       6.336e-01          -0.791          -0.329           0.516       5.482e-03          0.2122
  53       6.116e+00      -1.362e+01       6.580e-01          -0.298          -0.093           0.950       8.553e-03         -0.7233
  54       6.191e+00      -1.362e+01       6.734e-01          -0.134          -0.021           0.991       1.309e-02         -0.4491
  55       6.298e+00      -1.362e+01       6.836e-01          -0.065           0.008           0.998       1.710e-02         -0.3123
  56       6.430e+00      -1.362e+01       6.895e-01          -0.027           0.024           0.999       2.018e-02         -0.2362
  57       6.581e+00      -1.362e+01       6.918e-01          -0.004           0.032           0.999       2.212e-02         -0.1979
  58       6.741e+00      -1.362e+01       6.909e-01           0.015           0.039           0.999       2.278e-02         -0.1861
  59       6.900e+00      -1.362e+01       6.869e-01           0.037           0.046           0.998       2.213e-02         -0.1924
  60       7.051e+00      -1.362e+01       6.790e-01           0.070           0.056           0.996       2.022e-02         -0.2160
  61       7.183e+00      -1.362e+01       6.664e-01           0.124           0.071           0.990       1.719e-02         -0.2483
  62       7.290e+00      -1.362e+01       6.495e-01           0.198           0.090           0.976       1.322e-02         -0.2442
  63       7.365e+00      -1.362e+01       6.320e-01           0.272           0.108           0.956       8.419e-03         -0.1218
  64       7.403e+00      -1.362e+01       6.204e-01           0.331           0.121           0.936       2.922e-03          0.0033
Strip 3
  65       7.359e+00      -1.343e+01       6.114e-01          -0.279          -0.110          -0.954       4.897e-03          0.3247
  66       7.319e+00      -1.343e+01       6.201e-01          -0.190          -0.090          -0.978       1.407e-02          0.3725
  67       7.242e+00      -1.343e+01       6.269e-01          -0.023          -0.049          -0.999       2.211e-02          0.4037
  68       7.132e+00      -1.343e+01       6.208e-01           0.114          -0.012          -0.993       2.933e-02          0.3374
  69       6.996e+00      -1.343e+01       5.974e-01           0.215           0.017          -0.976       3.535e-02          0.1955
  70       6.841e+00      -1.343e+01       5.649e-01           0.196           0.011          -0.981       3.860e-02         -0.0423
  71       6.677e+00      -1.343e+01       5.428e-01           0.070          -0.031          -0.997       3.904e-02         -0.1897
  72       6.512e+00      -1.344e+01       5.355e-01           0.018          -0.050          -0.999       3.782e-02         -0.1861
  73       6.357e+00      -1.344e+01       5.354e-01          -0.019          -0.064          -0.998       3.449e-02         -0.1925
  74       6.221e+00      -1.343e+01       5.408e-01          -0.062          -0.081          -0.995       2.922e-02         -0.2161
  75       6.111e+00      -1.343e+01       5.514e-01          -0.141          -0.114          -0.983       2.240e-02         -0.2381
  76       6.034e+00      -1.343e+01       5.683e-01          -0.319          -0.188          -0.929       1.475e-02         -0.1901
  77       5.995e+00      -1.343e+01       5.940e-01          -0.788          -0.373          -0.490       9.285e-03          0.6422
  78       5.995e+00      -1.343e+01       6.255e-01          -0.791          -0.329           0.516       9.354e-03          0.2190
  79       6.034e+00      -1.343e+01       6.507e-01          -0.299          -0.094           0.950       1.460e-02         -0.7671
  80       6.111e+00      -1.343e+01       6.665e-01          -0.134          -0.021           0.991       2.234e-02         -0.4997
  81       6.221e+00      -1.343e+01       6.770e-01          -0.065           0.008           0.998       2.919e-02         -0.3721
  82       6.357e+00      -1.343e+01       6.831e-01          -0.027           0.024           0.999       3.445e-02         -0.2946
  83       6.512e+00      -1.343e+01       6.855e-01          -0.004           0.032           0.999       3.776e-02         -0.2501
  84       6.677e+00      -1.343e+01       6.846e-01           0.015           0.039           0.999       3.889e-02         -0.2341
  85       6.841e+00      -1.343e+01       6.804e-01           0.037           0.046           0.998       3.778e-02         -0.2376
  86       6.996e+00      -1.343e+01       6.723e-01           0.070           0.056           0.996       3.452e-02         -0.2550
  87       7.132e+00      -1.343e+01       6.593e-01           0.124           0.071           0.990       2.935e-02         -0.2712
  88       7.242e+00      -1.343e+01       6.419e-01           0.198           0.090           0.976       2.257e-02         -0.2377
  89       7.319e+00      -1.343e+01       6.239e-01           0.272           0.108           0.956       1.437e-02         -0.0809
  90       7.359e+00      -1.343e+01       6.120e-01           0.331           0.121           0.936       4.989e-03          0.0608
Strip 4
  91       7.292e+00      -1.315e+01       5.988e-01          -0.279          -0.110          -0.954       7.095e-03          0.3401
  92       7.251e+00      -1.315e+01       6.079e-01          -0.190          -0.090          -0.978       2.039e-02          0.3897
  93       7.171e+00      -1.315e+01       6.150e-01          -0.023          -0.049          -0.999       3.203e-02          0.4217
  94       7.056e+00      -1.315e+01       6.087e-01           0.114          -0.012          -0.993       4.248e-02          0.3524
  95       6.914e+00      -1.315e+01       5.842e-01           0.215           0.017          -0.976       5.120e-02          0.2042
  96       6.753e+00      -1.316e+01       5.503e-01           0.196           0.011          -0.981       5.591e-02         -0.0419
  97       6.582e+00      -1.316e+01       5.273e-01           0.070          -0.031          -0.997       5.654e-02         -0.1963
  98       6.410e+00      -1.316e+01       5.197e-01           0.018          -0.050          -0.999       5.478e-02         -0.1929
  99       6.249e+00      -1.316e+01       5.197e-01          -0.019          -0.064          -0.998       4.997e-02         -0.1933
 100       6.107e+00      -1.316e+01       5.252e-01          -0.062          -0.081          -0.995       4.234e-02         -0.2070
 101       5.993e+00      -1.316e+01       5.363e-01          -0.141          -0.114          -0.983       3.245e-02         -0.2180
 102       5.912e+00      -1.316e+01       5.539e-01          -0.319          -0.188          -0.929       2.137e-02         -0.1546
 103       5.871e+00      -1.315e+01       5.807e-01          -0.787          -0.373          -0.491       1.346e-02          0.6703
 104       5.871e+00      -1.315e+01       6.135e-01          -0.791          -0.329           0.515       1.355e-02          0.1984
 105       5.912e+00      -1.315e+01       6.398e-01          -0.299          -0.094           0.950       2.114e-02         -0.8037
 106       5.993e+00      -1.315e+01       6.562e-01          -0.134          -0.021           0.991       3.236e-02         -0.5278
 107       6.107e+00      -1.315e+01       6.672e-01          -0.065           0.008           0.998       4.228e-02         -0.4027
 108       6.249e+00      -1.315e+01       6.735e-01          -0.027           0.024           0.999       4.990e-02         -0.3304
 109       6.410e+00      -1.315e+01       6.760e-01          -0.004           0.032           0.999       5.470e-02         -0.2885
 110       6.582e+00      -1.315e+01       6.751e-01           0.015           0.039           0.999       5.634e-02         -0.2723
 111       6.753e+00      -1.315e+01       6.707e-01           0.037           0.046           0.998       5.473e-02         -0.2733
 112       6.914e+00      -1.315e+01       6.622e-01           0.070           0.056           0.996       5.001e-02         -0.2856
 113       7.056e+00      -1.315e+01       6.487e-01           0.124           0.071           0.990       4.252e-02         -0.2935
 114       7.171e+00      -1.315e+01       6.306e-01           0.198           0.090           0.976       3.271e-02         -0.2484
 115       7.251e+00      -1.315e+01       6.119e-01           0.272           0.108           0.956       2.082e-02         -0.0791
 116       7.292e+00      -1.315e+01       5.995e-01           0.331           0.121           0.936       7.228e-03          0.0688
Strip 5
 117       7.204e+00      -1.279e+01       5.822e-01          -0.279          -0.110          -0.954       9.522e-03          0.3434
 118       7.161e+00      -1.278e+01       5.917e-01          -0.190          -0.090          -0.978       2.736e-02          0.3939
 119       7.076e+00      -1.278e+01       5.992e-01          -0.023          -0.049          -0.999       4.297e-02          0.4266
 120       6.956e+00      -1.278e+01       5.925e-01           0.114          -0.012          -0.993       5.699e-02          0.3569
 121       6.806e+00      -1.279e+01       5.668e-01           0.215           0.017          -0.976       6.868e-02          0.2076
 122       6.636e+00      -1.279e+01       5.311e-01           0.196           0.011          -0.980       7.500e-02         -0.0398
 123       6.456e+00      -1.279e+01       5.069e-01           0.070          -0.031          -0.997       7.586e-02         -0.1946
 124       6.275e+00      -1.279e+01       4.988e-01           0.018          -0.050          -0.999       7.350e-02         -0.1896
 125       6.106e+00      -1.279e+01       4.988e-01          -0.019          -0.064          -0.998       6.705e-02         -0.1871
 126       5.956e+00      -1.279e+01       5.046e-01          -0.062          -0.081          -0.995       5.681e-02         -0.1972
 127       5.835e+00      -1.279e+01       5.163e-01          -0.141          -0.114          -0.983       4.355e-02         -0.2038
 128       5.751e+00      -1.279e+01       5.348e-01          -0.319          -0.188          -0.929       2.868e-02         -0.1317
 129       5.708e+00      -1.279e+01       5.631e-01          -0.787          -0.373          -0.491       1.806e-02          0.6851
 130       5.708e+00      -1.278e+01       5.977e-01          -0.792          -0.329           0.514       1.816e-02          0.1780
 131       5.751e+00      -1.278e+01       6.253e-01          -0.299          -0.094           0.950       2.835e-02         -0.8329
 132       5.835e+00      -1.278e+01       6.426e-01          -0.134          -0.021           0.991       4.341e-02         -0.5474
 133       5.956e+00      -1.278e+01       6.542e-01          -0.065           0.008           0.998       5.672e-02         -0.4210
 134       6.106e+00      -1.278e+01       6.609e-01          -0.027           0.024           0.999       6.695e-02         -0.3501
 135       6.275e+00      -1.278e+01       6.635e-01          -0.004           0.032           0.999       7.338e-02         -0.3104
 136       6.456e+00      -1.278e+01       6.625e-01           0.015           0.039           0.999       7.559e-02         -0.2953
 137       6.636e+00      -1.278e+01       6.579e-01           0.037           0.046           0.998       7.344e-02         -0.2957
 138       6.806e+00      -1.278e+01       6.490e-01           0.070           0.056           0.996       6.710e-02         -0.3053
 139       6.956e+00      -1.278e+01       6.348e-01           0.124           0.071           0.990       5.706e-02         -0.3083
 140       7.076e+00      -1.278e+01       6.157e-01           0.198           0.090           0.976       4.389e-02         -0.2575
 141       7.161e+00      -1.278e+01       5.959e-01           0.272           0.108           0.956       2.795e-02         -0.0827
 142       7.204e+00      -1.279e+01       5.829e-01           0.331           0.121           0.936       9.700e-03          0.0680
Strip 6
 143       7.095e+00      -1.233e+01       5.616e-01          -0.279          -0.110          -0.954       1.223e-02          0.3441
 144       7.049e+00      -1.233e+01       5.717e-01          -0.190          -0.090          -0.978       3.512e-02          0.3950
 145       6.959e+00      -1.233e+01       5.797e-01          -0.023          -0.049          -0.999       5.516e-02          0.4284
 146       6.831e+00      -1.233e+01       5.726e-01           0.114          -0.012          -0.993       7.315e-02          0.3589
 147       6.673e+00      -1.233e+01       5.452e-01           0.215           0.017          -0.976       8.815e-02          0.2098
 148       6.492e+00      -1.233e+01       5.073e-01           0.196           0.011          -0.980       9.626e-02         -0.0372
 149       6.300e+00      -1.233e+01       4.816e-01           0.070          -0.031          -0.997       9.737e-02         -0.1911
 150       6.109e+00      -1.233e+01       4.730e-01           0.018          -0.050          -0.999       9.434e-02         -0.1852
 151       5.928e+00      -1.233e+01       4.730e-01          -0.019          -0.064          -0.998       8.607e-02         -0.1814
 152       5.769e+00      -1.233e+01       4.792e-01          -0.062          -0.081          -0.995       7.293e-02         -0.1902
 153       5.641e+00      -1.233e+01       4.916e-01          -0.141          -0.114          -0.983       5.592e-02         -0.1947
 154       5.551e+00      -1.233e+01       5.113e-01          -0.319          -0.188          -0.929       3.683e-02         -0.1175
 155       5.505e+00      -1.233e+01       5.413e-01          -0.787          -0.373          -0.492       2.320e-02          0.6932
 156       5.505e+00      -1.233e+01       5.780e-01          -0.792          -0.330           0.513       2.330e-02          0.1639
 157       5.551e+00      -1.233e+01       6.074e-01          -0.299          -0.094           0.950       3.638e-02         -0.8527
 158       5.641e+00      -1.233e+01       6.258e-01          -0.135          -0.021           0.991       5.571e-02         -0.5599
 159       5.769e+00      -1.233e+01       6.381e-01          -0.065           0.008           0.998       7.280e-02         -0.4320
 160       5.928e+00      -1.233e+01       6.452e-01          -0.027           0.024           0.999       8.594e-02         -0.3611
 161       6.109e+00      -1.233e+01       6.480e-01          -0.004           0.032           0.999       9.420e-02         -0.3221
 162       6.300e+00      -1.233e+01       6.469e-01           0.015           0.039           0.999       9.703e-02         -0.3076
 163       6.492e+00      -1.233e+01       6.420e-01           0.037           0.046           0.998       9.427e-02         -0.3078
 164       6.673e+00      -1.233e+01       6.325e-01           0.070           0.056           0.996       8.615e-02         -0.3162
 165       6.831e+00      -1.233e+01       6.175e-01           0.124           0.071           0.990       7.325e-02         -0.3170
 166       6.959e+00      -1.233e+01       5.972e-01           0.198           0.090           0.976       5.635e-02         -0.2634
 167       7.049e+00      -1.233e+01       5.762e-01           0.272           0.108           0.956       3.588e-02         -0.0859
 168       7.095e+00      -1.233e+01       5.623e-01           0.331           0.121           0.936       1.246e-02          0.0664
Strip 7
 169       6.966e+00      -1.179e+01       5.372e-01          -0.279          -0.110          -0.954       1.524e-02          0.3443
 170       6.917e+00      -1.179e+01       5.480e-01          -0.190          -0.090          -0.978       4.379e-02          0.3956
 171       6.821e+00      -1.179e+01       5.565e-01          -0.023          -0.049          -0.999       6.877e-02          0.4293
 172       6.684e+00      -1.179e+01       5.490e-01           0.114          -0.012          -0.993       9.118e-02          0.3601
 173       6.514e+00      -1.179e+01       5.197e-01           0.215           0.017          -0.976       1.099e-01          0.2114
 174       6.321e+00      -1.179e+01       4.791e-01           0.196           0.011          -0.980       1.200e-01         -0.0352
 175       6.116e+00      -1.179e+01       4.516e-01           0.070          -0.031          -0.997       1.214e-01         -0.1886
 176       5.911e+00      -1.179e+01       4.424e-01           0.018          -0.050          -0.999       1.176e-01         -0.1821
 177       5.718e+00      -1.179e+01       4.424e-01          -0.019          -0.064          -0.998       1.073e-01         -0.1779
 178       5.548e+00      -1.179e+01       4.491e-01          -0.062          -0.081          -0.995       9.092e-02         -0.1863
 179       5.411e+00      -1.179e+01       4.623e-01          -0.141          -0.113          -0.983       6.972e-02         -0.1898
 180       5.315e+00      -1.179e+01       4.834e-01          -0.318          -0.188          -0.929       4.594e-02         -0.1103
 181       5.265e+00      -1.179e+01       5.155e-01          -0.786          -0.373          -0.493       2.894e-02          0.6969
 182       5.265e+00      -1.179e+01       5.548e-01          -0.793          -0.330           0.512       2.903e-02          0.1569
 183       5.315e+00      -1.179e+01       5.862e-01          -0.299          -0.094           0.950       4.533e-02         -0.8635
 184       5.411e+00      -1.179e+01       6.059e-01          -0.135          -0.021           0.991       6.943e-02         -0.5667
 185       5.548e+00      -1.179e+01       6.190e-01          -0.065           0.008           0.998       9.075e-02         -0.4378
 186       5.718e+00      -1.179e+01       6.266e-01          -0.027           0.024           0.999       1.071e-01         -0.3669
 187       5.911e+00      -1.179e+01       6.296e-01          -0.004           0.032           0.999       1.174e-01         -0.3281
 188       6.116e+00      -1.179e+01       6.285e-01           0.015           0.039           0.999       1.210e-01         -0.3139
 189       6.321e+00      -1.179e+01       6.232e-01           0.037           0.046           0.998       1.175e-01         -0.3140
 190       6.514e+00      -1.179e+01       6.131e-01           0.070           0.056           0.996       1.074e-01         -0.3217
 191       6.684e+00      -1.179e+01       5.970e-01           0.124           0.071           0.990       9.133e-02         -0.3216
 192       6.821e+00      -1.179e+01       5.753e-01           0.198           0.090           0.976       7.026e-02         -0.2667
 193       6.917e+00      -1.179e+01       5.528e-01           0.272           0.108           0.956       4.474e-02         -0.0878
 194       6.966e+00      -1.179e+01       5.380e-01           0.331           0.121           0.936       1.553e-02          0.0652
Strip 8
 195       6.818e+00      -1.117e+01       5.092e-01          -0.279          -0.110          -0.954       1.860e-02          0.3443
 196       6.765e+00      -1.117e+01       5.208e-01          -0.190          -0.090          -0.978       5.344e-02          0.3959
 197       6.662e+00      -1.117e+01       5.300e-01          -0.023          -0.049          -0.999       8.390e-02          0.4299
 198       6.515e+00      -1.117e+01       5.218e-01           0.114          -0.012          -0.993       1.112e-01          0.3610
 199       6.332e+00      -1.117e+01       4.903e-01           0.215           0.017          -0.976       1.340e-01          0.2123
 200       6.124e+00      -1.117e+01       4.467e-01           0.196           0.011          -0.980       1.463e-01         -0.0341
 201       5.904e+00      -1.117e+01       4.171e-01           0.070          -0.031          -0.997       1.481e-01         -0.1873
 202       5.684e+00      -1.117e+01       4.073e-01           0.018          -0.050          -0.999       1.435e-01         -0.1807
 203       5.476e+00      -1.117e+01       4.073e-01          -0.019          -0.064          -0.998       1.309e-01         -0.1764
 204       5.293e+00      -1.117e+01       4.144e-01          -0.062          -0.081          -0.995       1.109e-01         -0.1848
 205       5.146e+00      -1.117e+01       4.287e-01          -0.141          -0.113          -0.983       8.509e-02         -0.1884
 206       5.043e+00      -1.117e+01       4.513e-01          -0.318          -0.187          -0.929       5.608e-02         -0.1086
 207       4.990e+00      -1.117e+01       4.858e-01          -0.786          -0.372          -0.494       3.533e-02          0.6972
 208       4.990e+00      -1.117e+01       5.281e-01          -0.793          -0.330           0.512       3.540e-02          0.1563
 209       5.043e+00      -1.117e+01       5.619e-01          -0.299          -0.094           0.950       5.528e-02         -0.8665
 210       5.146e+00      -1.117e+01       5.830e-01          -0.135          -0.021           0.991       8.470e-02         -0.5690
 211       5.293e+00      -1.117e+01       5.971e-01          -0.065           0.008           0.998       1.107e-01         -0.4401
 212       5.476e+00      -1.117e+01       6.053e-01          -0.027           0.024           0.999       1.307e-01         -0.3693
 213       5.684e+00      -1.117e+01       6.085e-01          -0.004           0.032           0.999       1.433e-01         -0.3309
 214       5.904e+00      -1.117e+01       6.073e-01           0.015           0.039           0.999       1.476e-01         -0.3167
 215       6.124e+00      -1.117e+01       6.016e-01           0.037           0.046           0.998       1.434e-01         -0.3168
 216       6.332e+00      -1.117e+01       5.908e-01           0.070           0.056           0.996       1.310e-01         -0.3244
 217       6.515e+00      -1.117e+01       5.734e-01           0.124           0.071           0.990       1.114e-01         -0.3237
 218       6.662e+00      -1.117e+01       5.501e-01           0.198           0.090           0.976       8.574e-02         -0.2683
 219       6.765e+00      -1.117e+01       5.260e-01           0.272           0.108           0.956       5.460e-02         -0.0888
 220       6.818e+00      -1.117e+01       5.100e-01           0.330           0.121           0.936       1.895e-02          0.0644
Strip 9
 221       6.652e+00      -1.047e+01       4.777e-01          -0.279          -0.110          -0.954       2.231e-02          0.3444
 222       6.594e+00      -1.047e+01       4.902e-01          -0.190          -0.089          -0.978       6.409e-02          0.3960
 223       6.483e+00      -1.047e+01       5.001e-01          -0.023          -0.049          -0.999       1.006e-01          0.4303
 224       6.325e+00      -1.047e+01       4.913e-01           0.114          -0.012          -0.993       1.334e-01          0.3614
 225       6.128e+00      -1.047e+01       4.574e-01           0.216           0.017          -0.976       1.607e-01          0.2127
 226       5.904e+00      -1.047e+01       4.104e-01           0.196           0.011          -0.980       1.755e-01         -0.0338
 227       5.666e+00      -1.047e+01       3.784e-01           0.070          -0.031          -0.997       1.776e-01         -0.1870
 228       5.429e+00      -1.048e+01       3.678e-01           0.018          -0.050          -0.999       1.721e-01         -0.1806
 229       5.205e+00      -1.048e+01       3.678e-01          -0.019          -0.064          -0.998       1.570e-01         -0.1766
 230       5.008e+00      -1.047e+01       3.755e-01          -0.062          -0.081          -0.995       1.331e-01         -0.1854
 231       4.849e+00      -1.047e+01       3.909e-01          -0.141          -0.113          -0.983       1.021e-01         -0.1897
 232       4.738e+00      -1.047e+01       4.153e-01          -0.318          -0.187          -0.929       6.728e-02         -0.1112
 233       4.681e+00      -1.047e+01       4.525e-01          -0.785          -0.372          -0.495       4.240e-02          0.6951
 234       4.681e+00      -1.047e+01       4.981e-01          -0.794          -0.330           0.511       4.243e-02          0.1610
 235       4.738e+00      -1.047e+01       5.345e-01          -0.299          -0.094           0.950       6.626e-02         -0.8635
 236       4.849e+00      -1.047e+01       5.573e-01          -0.135          -0.021           0.991       1.016e-01         -0.5677
 237       5.008e+00      -1.047e+01       5.725e-01          -0.065           0.008           0.998       1.328e-01         -0.4397
 238       5.205e+00      -1.047e+01       5.814e-01          -0.027           0.024           0.999       1.567e-01         -0.3695
 239       5.429e+00      -1.047e+01       5.848e-01          -0.004           0.032           0.999       1.718e-01         -0.3314
 240       5.666e+00      -1.047e+01       5.835e-01           0.015           0.039           0.999       1.770e-01         -0.3176
 241       5.904e+00      -1.047e+01       5.774e-01           0.037           0.046           0.998       1.720e-01         -0.3178
 242       6.128e+00      -1.047e+01       5.657e-01           0.070           0.056           0.996       1.572e-01         -0.3253
 243       6.325e+00      -1.047e+01       5.469e-01           0.124           0.071           0.990       1.337e-01         -0.3245
 244       6.483e+00      -1.047e+01       5.218e-01           0.198           0.090           0.976       1.028e-01         -0.2689
 245       6.594e+00      -1.047e+01       4.958e-01           0.272           0.108           0.956       6.549e-02         -0.0892
 246       6.652e+00      -1.047e+01       4.786e-01           0.330           0.121           0.936       2.274e-02          0.0641
Strip 10
 247       6.468e+00      -9.704e+00       4.430e-01          -0.279          -0.110          -0.954       2.637e-02          0.3444
 248       6.406e+00      -9.704e+00       4.565e-01          -0.190          -0.089          -0.978       7.574e-02          0.3961
 249       6.286e+00      -9.704e+00       4.672e-01          -0.023          -0.049          -0.999       1.189e-01          0.4305
 250       6.115e+00      -9.704e+00       4.577e-01           0.114          -0.012          -0.993       1.576e-01          0.3616
 251       5.902e+00      -9.705e+00       4.210e-01           0.216           0.017          -0.976       1.898e-01          0.2128
 252       5.660e+00      -9.706e+00       3.702e-01           0.196           0.011          -0.980       2.073e-01         -0.0341
 253       5.404e+00      -9.706e+00       3.358e-01           0.070          -0.031          -0.997       2.098e-01         -0.1876
 254       5.147e+00      -9.707e+00       3.243e-01           0.018          -0.050          -0.999       2.033e-01         -0.1814
 255       4.906e+00      -9.707e+00       3.243e-01          -0.019          -0.064          -0.998       1.855e-01         -0.1778
 256       4.693e+00      -9.707e+00       3.326e-01          -0.062          -0.081          -0.995       1.572e-01         -0.1874
 257       4.521e+00      -9.706e+00       3.492e-01          -0.141          -0.113          -0.983       1.206e-01         -0.1931
 258       4.401e+00      -9.706e+00       3.756e-01          -0.318          -0.187          -0.929       7.953e-02         -0.1172
 259       4.339e+00      -9.705e+00       4.158e-01          -0.785          -0.372          -0.496       5.012e-02          0.6911
 260       4.339e+00      -9.704e+00       4.650e-01          -0.794          -0.331           0.510       5.010e-02          0.1698
 261       4.401e+00      -9.703e+00       5.044e-01          -0.299          -0.094           0.949       7.826e-02         -0.8556
 262       4.521e+00      -9.703e+00       5.290e-01          -0.135          -0.021           0.991       1.200e-01         -0.5639
 263       4.693e+00      -9.702e+00       5.454e-01          -0.065           0.008           0.998       1.568e-01         -0.4374
 264       4.906e+00      -9.702e+00       5.550e-01          -0.027           0.024           0.999       1.852e-01         -0.3681
 265       5.147e+00      -9.702e+00       5.586e-01          -0.004           0.032           0.999       2.030e-01         -0.3306
 266       5.404e+00      -9.702e+00       5.573e-01           0.015           0.039           0.999       2.091e-01         -0.3172
 267       5.660e+00      -9.702e+00       5.507e-01           0.037           0.046           0.998       2.032e-01         -0.3176
 268       5.902e+00      -9.703e+00       5.380e-01           0.070           0.056           0.996       1.857e-01         -0.3252
 269       6.115e+00      -9.703e+00       5.178e-01           0.124           0.071           0.990       1.579e-01         -0.3246
 270       6.286e+00      -9.703e+00       4.906e-01           0.198           0.090           0.976       1.215e-01         -0.2690
 271       6.406e+00      -9.704e+00       4.625e-01           0.272           0.108           0.956       7.740e-02         -0.0893
 272       6.468e+00      -9.704e+00       4.439e-01           0.330           0.121           0.936       2.687e-02          0.0639
Strip 11
 273       6.269e+00      -8.870e+00       4.053e-01          -0.279          -0.110          -0.954       3.075e-02          0.3444
 274       6.202e+00      -8.870e+00       4.199e-01          -0.190          -0.089          -0.978       8.832e-02          0.3961
 275       6.072e+00      -8.869e+00       4.314e-01          -0.023          -0.049          -0.999       1.386e-01          0.4306
 276       5.887e+00      -8.870e+00       4.212e-01           0.114          -0.012          -0.993       1.837e-01          0.3616
 277       5.657e+00      -8.870e+00       3.816e-01           0.216           0.017          -0.976       2.213e-01          0.2126
 278       5.396e+00      -8.871e+00       3.267e-01           0.196           0.011          -0.980       2.416e-01         -0.0348
 279       5.119e+00      -8.872e+00       2.894e-01           0.070          -0.031          -0.997       2.446e-01         -0.1888
 280       4.842e+00      -8.872e+00       2.771e-01           0.018          -0.050          -0.999       2.370e-01         -0.1831
 281       4.581e+00      -8.872e+00       2.770e-01          -0.019          -0.064          -0.998       2.163e-01         -0.1801
 282       4.351e+00      -8.872e+00       2.860e-01          -0.062          -0.081          -0.995       1.833e-01         -0.1906
 283       4.166e+00      -8.872e+00       3.040e-01          -0.141          -0.113          -0.983       1.406e-01         -0.1980
 284       4.036e+00      -8.871e+00       3.324e-01          -0.318          -0.187          -0.929       9.276e-02         -0.1259
 285       3.969e+00      -8.870e+00       3.759e-01          -0.784          -0.372          -0.497       5.847e-02          0.6856
 286       3.969e+00      -8.869e+00       4.291e-01          -0.795          -0.331           0.509       5.838e-02          0.1819
 287       4.036e+00      -8.869e+00       4.716e-01          -0.300          -0.094           0.949       9.122e-02         -0.8437
 288       4.166e+00      -8.868e+00       4.982e-01          -0.135          -0.021           0.991       1.398e-01         -0.5578
 289       4.351e+00      -8.868e+00       5.160e-01          -0.065           0.008           0.998       1.829e-01         -0.4337
 290       4.581e+00      -8.868e+00       5.263e-01          -0.027           0.024           0.999       2.159e-01         -0.3656
 291       4.842e+00      -8.868e+00       5.303e-01          -0.004           0.032           0.999       2.367e-01         -0.3289
 292       5.119e+00      -8.868e+00       5.287e-01           0.015           0.039           0.999       2.438e-01         -0.3159
 293       5.396e+00      -8.868e+00       5.216e-01           0.037           0.046           0.998       2.369e-01         -0.3167
 294       5.657e+00      -8.868e+00       5.079e-01           0.070           0.056           0.996       2.165e-01         -0.3246
 295       5.887e+00      -8.869e+00       4.861e-01           0.124           0.071           0.990       1.842e-01         -0.3241
 296       6.072e+00      -8.869e+00       4.567e-01           0.198           0.090           0.976       1.417e-01         -0.2687
 297       6.202e+00      -8.869e+00       4.264e-01           0.272           0.108           0.956       9.026e-02         -0.0893
 298       6.269e+00      -8.870e+00       4.063e-01           0.330           0.121           0.936       3.134e-02          0.0638
Strip 12
 299       6.055e+00      -7.975e+00       3.648e-01          -0.279          -0.110          -0.954       3.542e-02          0.3443
 300       5.983e+00      -7.975e+00       3.806e-01          -0.190          -0.089          -0.978       1.017e-01          0.3961
 301       5.843e+00      -7.974e+00       3.931e-01          -0.023          -0.049          -0.999       1.596e-01          0.4305
 302       5.643e+00      -7.974e+00       3.820e-01           0.114          -0.012          -0.993       2.116e-01          0.3615
 303       5.395e+00      -7.975e+00       3.392e-01           0.216           0.017          -0.976       2.548e-01          0.2122
 304       5.113e+00      -7.976e+00       2.799e-01           0.196           0.011          -0.980       2.782e-01         -0.0359
 305       4.813e+00      -7.976e+00       2.397e-01           0.070          -0.031          -0.997       2.816e-01         -0.1906
 306       4.514e+00      -7.977e+00       2.263e-01           0.018          -0.050          -0.999       2.730e-01         -0.1853
 307       4.232e+00      -7.977e+00       2.263e-01          -0.019          -0.064          -0.998       2.491e-01         -0.1830
 308       3.984e+00      -7.977e+00       2.360e-01          -0.062          -0.081          -0.995       2.112e-01         -0.1948
 309       3.784e+00      -7.976e+00       2.554e-01          -0.141          -0.113          -0.984       1.620e-01         -0.2044
 310       3.644e+00      -7.976e+00       2.861e-01          -0.318          -0.187          -0.929       1.069e-01         -0.1370
 311       3.571e+00      -7.975e+00       3.331e-01          -0.784          -0.372          -0.497       6.737e-02          0.6786
 312       3.571e+00      -7.974e+00       3.905e-01          -0.795          -0.331           0.508       6.721e-02          0.1966
 313       3.644e+00      -7.974e+00       4.364e-01          -0.300          -0.094           0.949       1.050e-01         -0.8286
 314       3.784e+00      -7.973e+00       4.652e-01          -0.135          -0.021           0.991       1.610e-01         -0.5501
 315       3.984e+00      -7.973e+00       4.844e-01          -0.065           0.008           0.998       2.106e-01         -0.4287
 316       4.232e+00      -7.973e+00       4.955e-01          -0.027           0.024           0.999       2.487e-01         -0.3621
 317       4.514e+00      -7.973e+00       4.998e-01          -0.004           0.032           0.999       2.726e-01         -0.3263
 318       4.813e+00      -7.973e+00       4.982e-01           0.015           0.039           0.999       2.808e-01         -0.3140
 319       5.113e+00      -7.973e+00       4.905e-01           0.037           0.046           0.998       2.729e-01         -0.3152
 320       5.395e+00      -7.973e+00       4.757e-01           0.070           0.056           0.996       2.494e-01         -0.3235
 321       5.643e+00      -7.974e+00       4.521e-01           0.124           0.071           0.990       2.121e-01         -0.3232
 322       5.843e+00      -7.974e+00       4.204e-01           0.198           0.090           0.976       1.632e-01         -0.2682
 323       5.983e+00      -7.974e+00       3.877e-01           0.272           0.108           0.956       1.040e-01         -0.0891
 324       6.055e+00      -7.975e+00       3.659e-01           0.330           0.121           0.936       3.610e-02          0.0638
Strip 13
 325       5.828e+00      -7.025e+00       3.219e-01          -0.279          -0.110          -0.954       4.033e-02          0.3442
 326       5.750e+00      -7.025e+00       3.390e-01          -0.190          -0.089          -0.978       1.158e-01          0.3960
 327       5.599e+00      -7.025e+00       3.524e-01          -0.023          -0.049          -0.999       1.817e-01          0.4304
 328       5.383e+00      -7.025e+00       3.404e-01           0.114          -0.012          -0.993       2.408e-01          0.3613
 329       5.116e+00      -7.025e+00       2.943e-01           0.216           0.017          -0.976       2.900e-01          0.2116
 330       4.812e+00      -7.026e+00       2.304e-01           0.197           0.011          -0.980       3.167e-01         -0.0372
 331       4.489e+00      -7.027e+00       1.870e-01           0.070          -0.031          -0.997       3.206e-01         -0.1927
 332       4.166e+00      -7.027e+00       1.726e-01           0.018          -0.050          -0.999       3.107e-01         -0.1880
 333       3.862e+00      -7.027e+00       1.725e-01          -0.019          -0.064          -0.998       2.836e-01         -0.1866
 334       3.594e+00      -7.027e+00       1.830e-01          -0.062          -0.081          -0.995       2.404e-01         -0.1997
 335       3.379e+00      -7.026e+00       2.039e-01          -0.141          -0.113          -0.984       1.844e-01         -0.2120
 336       3.228e+00      -7.026e+00       2.371e-01          -0.318          -0.187          -0.930       1.217e-01         -0.1502
 337       3.150e+00      -7.026e+00       2.877e-01          -0.783          -0.372          -0.498       7.673e-02          0.6703
 338       3.150e+00      -7.025e+00       3.496e-01          -0.795          -0.331           0.508       7.647e-02          0.2135
 339       3.228e+00      -7.024e+00       3.992e-01          -0.300          -0.094           0.949       1.195e-01         -0.8106
 340       3.379e+00      -7.024e+00       4.302e-01          -0.135          -0.021           0.991       1.833e-01         -0.5407
 341       3.594e+00      -7.024e+00       4.509e-01          -0.065           0.008           0.998       2.397e-01         -0.4227
 342       3.862e+00      -7.024e+00       4.628e-01          -0.027           0.024           0.999       2.830e-01         -0.3578
 343       4.166e+00      -7.023e+00       4.675e-01          -0.004           0.032           0.999       3.103e-01         -0.3231
 344       4.489e+00      -7.024e+00       4.657e-01           0.015           0.039           0.999       3.197e-01         -0.3116
 345       4.812e+00      -7.024e+00       4.575e-01           0.037           0.046           0.998       3.106e-01         -0.3133
 346       5.116e+00      -7.024e+00       4.415e-01           0.070           0.056           0.996       2.839e-01         -0.3220
 347       5.383e+00      -7.024e+00       4.161e-01           0.124           0.071           0.990       2.415e-01         -0.3222
 348       5.599e+00      -7.024e+00       3.819e-01           0.198           0.090           0.976       1.858e-01         -0.2675
 349       5.750e+00      -7.025e+00       3.465e-01           0.272           0.108           0.956       1.184e-01         -0.0889
 350       5.828e+00      -7.025e+00       3.231e-01           0.330           0.121           0.936       4.110e-02          0.0637
Strip 14
 351       5.590e+00      -6.028e+00       2.768e-01          -0.279          -0.110          -0.954       4.540e-02          0.3440
 352       5.506e+00      -6.027e+00       2.952e-01          -0.190          -0.089          -0.978       1.304e-01          0.3958
 353       5.343e+00      -6.027e+00       3.096e-01          -0.023          -0.049          -0.999       2.046e-01          0.4302
 354       5.111e+00      -6.027e+00       2.968e-01           0.114          -0.012          -0.993       2.711e-01          0.3609
 355       4.823e+00      -6.028e+00       2.471e-01           0.216           0.017          -0.976       3.264e-01          0.2108
 356       4.496e+00      -6.028e+00       1.783e-01           0.197           0.011          -0.980       3.564e-01         -0.0389
 357       4.148e+00      -6.029e+00       1.316e-01           0.070          -0.031          -0.997       3.609e-01         -0.1953
 358       3.801e+00      -6.029e+00       1.161e-01           0.018          -0.050          -0.999       3.498e-01         -0.1913
 359       3.473e+00      -6.029e+00       1.160e-01          -0.019          -0.064          -0.998       3.192e-01         -0.1908
 360       3.185e+00      -6.029e+00       1.273e-01          -0.062          -0.081          -0.995       2.706e-01         -0.2055
 361       2.953e+00      -6.029e+00       1.498e-01          -0.141          -0.113          -0.984       2.076e-01         -0.2206
 362       2.791e+00      -6.028e+00       1.855e-01          -0.318          -0.187          -0.930       1.370e-01         -0.1655
 363       2.707e+00      -6.028e+00       2.400e-01          -0.783          -0.372          -0.499       8.641e-02          0.6605
 364       2.707e+00      -6.027e+00       3.067e-01          -0.796          -0.332           0.507       8.605e-02          0.2327
 365       2.791e+00      -6.027e+00       3.600e-01          -0.300          -0.094           0.949       1.345e-01         -0.7896
 366       2.953e+00      -6.027e+00       3.934e-01          -0.135          -0.021           0.991       2.063e-01         -0.5298
 367       3.185e+00      -6.026e+00       4.156e-01          -0.065           0.008           0.998       2.698e-01         -0.4156
 368       3.473e+00      -6.026e+00       4.285e-01          -0.027           0.024           0.999       3.186e-01         -0.3528
 369       3.801e+00      -6.026e+00       4.336e-01          -0.004           0.032           0.999       3.493e-01         -0.3193
 370       4.148e+00      -6.026e+00       4.317e-01           0.015           0.039           0.999       3.599e-01         -0.3086
 371       4.496e+00      -6.026e+00       4.228e-01           0.037           0.046           0.998       3.497e-01         -0.3111
 372       4.823e+00      -6.026e+00       4.056e-01           0.070           0.056           0.996       3.196e-01         -0.3203
 373       5.111e+00      -6.027e+00       3.782e-01           0.124           0.071           0.990       2.719e-01         -0.3209
 374       5.343e+00      -6.027e+00       3.414e-01           0.198           0.090           0.976       2.092e-01         -0.2667
 375       5.506e+00      -6.027e+00       3.033e-01           0.272           0.108           0.956       1.333e-01         -0.0886
 376       5.590e+00      -6.028e+00       2.781e-01           0.330           0.121           0.936       4.627e-02          0.0637
Strip 15
 377       5.342e+00      -4.989e+00       2.299e-01          -0.279          -0.110          -0.954       5.057e-02          0.3437
 378       5.252e+00      -4.989e+00       2.496e-01          -0.190          -0.089          -0.978       1.452e-01          0.3955
 379       5.077e+00      -4.989e+00       2.651e-01          -0.023          -0.049          -0.999       2.278e-01          0.4299
 380       4.828e+00      -4.989e+00       2.513e-01           0.114          -0.012          -0.993       3.018e-01          0.3604
 381       4.518e+00      -4.989e+00       1.980e-01           0.216           0.017          -0.976       3.634e-01          0.2098
 382       4.167e+00      -4.990e+00       1.241e-01           0.197           0.011          -0.980       3.968e-01         -0.0409
 383       3.794e+00      -4.990e+00       7.386e-02           0.070          -0.031          -0.997       4.018e-01         -0.1984
 384       3.420e+00      -4.990e+00       5.722e-02           0.018          -0.050          -0.999       3.895e-01         -0.1951
 385       3.069e+00      -4.990e+00       5.717e-02          -0.019          -0.064          -0.998       3.555e-01         -0.1957
 386       2.760e+00      -4.990e+00       6.927e-02          -0.062          -0.081          -0.995       3.014e-01         -0.2121
 387       2.510e+00      -4.990e+00       9.349e-02          -0.141          -0.113          -0.984       2.313e-01         -0.2305
 388       2.336e+00      -4.989e+00       1.318e-01          -0.317          -0.187          -0.930       1.526e-01         -0.1829
 389       2.246e+00      -4.989e+00       1.903e-01          -0.783          -0.371          -0.499       9.626e-02          0.6491
 390       2.246e+00      -4.989e+00       2.619e-01          -0.796          -0.332           0.506       9.579e-02          0.2541
 391       2.336e+00      -4.988e+00       3.192e-01          -0.300          -0.094           0.949       1.497e-01         -0.7654
 392       2.510e+00      -4.988e+00       3.551e-01          -0.135          -0.021           0.991       2.297e-01         -0.5171
 393       2.760e+00      -4.988e+00       3.790e-01          -0.065           0.008           0.998       3.004e-01         -0.4073
 394       3.069e+00      -4.988e+00       3.928e-01          -0.027           0.024           0.999       3.548e-01         -0.3468
 395       3.420e+00      -4.988e+00       3.982e-01          -0.004           0.032           0.999       3.890e-01         -0.3149
 396       3.794e+00      -4.988e+00       3.962e-01           0.015           0.039           0.999       4.007e-01         -0.3052
 397       4.167e+00      -4.988e+00       3.866e-01           0.037           0.046           0.998       3.894e-01         -0.3085
 398       4.518e+00      -4.988e+00       3.682e-01           0.070           0.056           0.996       3.559e-01         -0.3183
 399       4.828e+00      -4.988e+00       3.387e-01           0.124           0.071           0.990       3.028e-01         -0.3195
 400       5.077e+00      -4.988e+00       2.992e-01           0.198           0.090           0.976       2.330e-01         -0.2658
 401       5.252e+00      -4.989e+00       2.584e-01           0.272           0.108           0.956       1.484e-01         -0.0884
 402       5.342e+00      -4.989e+00       2.313e-01           0.330           0.121           0.936       5.153e-02          0.0634
Strip 16
 403       5.085e+00      -3.916e+00       1.814e-01          -0.278          -0.110          -0.954       5.573e-02          0.3433
 404       4.989e+00      -3.916e+00       2.025e-01          -0.190          -0.089          -0.978       1.600e-01          0.3951
 405       4.802e+00      -3.916e+00       2.192e-01          -0.023          -0.049          -0.999       2.510e-01          0.4294
 406       4.535e+00      -3.916e+00       2.043e-01           0.114          -0.012          -0.993       3.326e-01          0.3597
 407       4.203e+00      -3.916e+00       1.472e-01           0.216           0.017          -0.976       4.004e-01          0.2085
 408       3.827e+00      -3.917e+00       6.804e-02           0.197           0.011          -0.980       4.373e-01         -0.0435
 409       3.427e+00      -3.917e+00       1.428e-02           0.070          -0.031          -0.997       4.428e-01         -0.2021
 410       3.028e+00      -3.917e+00      -3.548e-03           0.018          -0.050          -0.999       4.292e-01         -0.1995
 411       2.651e+00      -3.917e+00      -3.597e-03          -0.019          -0.064          -0.998       3.917e-01         -0.2011
 412       2.320e+00      -3.917e+00       9.360e-03          -0.062          -0.081          -0.995       3.321e-01         -0.2194
 413       2.053e+00      -3.917e+00       3.531e-02          -0.141          -0.113          -0.984       2.549e-01         -0.2415
 414       1.866e+00      -3.917e+00       7.632e-02          -0.317          -0.187          -0.930       1.682e-01         -0.2024
 415       1.769e+00      -3.916e+00       1.390e-01          -0.783          -0.371          -0.500       1.061e-01          0.6358
 416       1.769e+00      -3.916e+00       2.157e-01          -0.796          -0.332           0.506       1.055e-01          0.2779
 417       1.866e+00      -3.915e+00       2.771e-01          -0.300          -0.094           0.949       1.649e-01         -0.7374
 418       2.053e+00      -3.915e+00       3.155e-01          -0.135          -0.021           0.991       2.531e-01         -0.5021
 419       2.320e+00      -3.915e+00       3.411e-01          -0.065           0.008           0.998       3.310e-01         -0.3974
 420       2.651e+00      -3.915e+00       3.560e-01          -0.027           0.024           0.999       3.910e-01         -0.3398
 421       3.028e+00      -3.915e+00       3.617e-01          -0.004           0.032           0.999       4.286e-01         -0.3097
 422       3.427e+00      -3.915e+00       3.595e-01           0.015           0.039           0.999       4.416e-01         -0.3014
 423       3.827e+00      -3.915e+00       3.493e-01           0.037           0.046           0.998       4.291e-01         -0.3056
 424       4.203e+00      -3.915e+00       3.295e-01           0.070           0.056           0.996       3.922e-01         -0.3163
 425       4.535e+00      -3.915e+00       2.980e-01           0.124           0.071           0.990       3.336e-01         -0.3181
 426       4.802e+00      -3.916e+00       2.557e-01           0.198           0.090           0.976       2.568e-01         -0.2651
 427       4.989e+00      -3.916e+00       2.119e-01           0.272           0.108           0.956       1.636e-01         -0.0884
 428       5.085e+00      -3.916e+00       1.829e-01           0.330           0.121           0.936       5.680e-02          0.0630
Strip 17
 429       4.823e+00      -2.816e+00       1.317e-01          -0.278          -0.110          -0.954       6.079e-02          0.3425
 430       4.720e+00      -2.816e+00       1.543e-01          -0.190          -0.089          -0.978       1.745e-01          0.3942
 431       4.520e+00      -2.816e+00       1.720e-01          -0.023          -0.049          -0.999       2.738e-01          0.4284
 432       4.235e+00      -2.816e+00       1.562e-01           0.114          -0.012          -0.993       3.627e-01          0.3584
 433       3.881e+00      -2.817e+00       9.519e-02           0.216           0.017          -0.976       4.366e-01          0.2063
 434       3.479e+00      -2.817e+00       1.063e-02           0.197           0.011          -0.980       4.768e-01         -0.0472
 435       3.052e+00      -2.817e+00      -4.679e-02           0.070          -0.031          -0.997       4.829e-01         -0.2069
 436       2.625e+00      -2.817e+00      -6.583e-02           0.018          -0.050          -0.999       4.681e-01         -0.2048
 437       2.223e+00      -2.817e+00      -6.588e-02          -0.019          -0.064          -0.998       4.272e-01         -0.2070
 438       1.869e+00      -2.817e+00      -5.204e-02          -0.062          -0.081          -0.995       3.622e-01         -0.2268
 439       1.584e+00      -2.817e+00      -2.433e-02          -0.141          -0.113          -0.984       2.780e-01         -0.2526
 440       1.384e+00      -2.817e+00       1.948e-02          -0.317          -0.187          -0.930       1.835e-01         -0.2234
 441       1.281e+00      -2.817e+00       8.642e-02          -0.782          -0.371          -0.500       1.158e-01          0.6207
 442       1.281e+00      -2.816e+00       1.684e-01          -0.796          -0.332           0.505       1.150e-01          0.3049
 443       1.384e+00      -2.816e+00       2.339e-01          -0.300          -0.094           0.949       1.799e-01         -0.7036
 444       1.584e+00      -2.816e+00       2.749e-01          -0.135          -0.021           0.991       2.760e-01         -0.4834
 445       1.869e+00      -2.816e+00       3.023e-01          -0.065           0.008           0.998       3.610e-01         -0.3849
 446       2.223e+00      -2.816e+00       3.182e-01          -0.027           0.024           0.999       4.264e-01         -0.3309
 447       2.625e+00      -2.816e+00       3.243e-01          -0.004           0.032           0.999       4.675e-01         -0.3034
 448       3.052e+00      -2.816e+00       3.220e-01           0.015           0.039           0.999       4.816e-01         -0.2971
 449       3.479e+00      -2.816e+00       3.110e-01           0.037           0.046           0.998       4.680e-01         -0.3028
 450       3.881e+00      -2.816e+00       2.899e-01           0.070           0.056           0.996       4.278e-01         -0.3145
 451       4.235e+00      -2.816e+00       2.563e-01           0.124           0.071           0.990       3.639e-01         -0.3171
 452       4.520e+00      -2.816e+00       2.110e-01           0.198           0.090           0.976       2.801e-01         -0.2649
 453       4.720e+00      -2.816e+00       1.643e-01           0.271           0.108           0.956       1.784e-01         -0.0889
 454       4.823e+00      -2.816e+00       1.333e-01           0.330           0.121           0.936       6.195e-02          0.0621
Strip 18
 455       4.555e+00      -1.698e+00       8.117e-02          -0.278          -0.110          -0.954       6.563e-02          0.3409
 456       4.446e+00      -1.698e+00       1.052e-01          -0.190          -0.089          -0.978       1.884e-01          0.3925
 457       4.233e+00      -1.697e+00       1.241e-01          -0.023          -0.049          -0.999       2.956e-01          0.4264
 458       3.929e+00      -1.698e+00       1.073e-01           0.114          -0.012          -0.993       3.915e-01          0.3555
 459       3.552e+00      -1.698e+00       4.226e-02           0.216           0.017          -0.976       4.714e-01          0.2017
 460       3.124e+00      -1.698e+00      -4.778e-02           0.197           0.011          -0.980       5.147e-01         -0.0542
 461       2.670e+00      -1.698e+00      -1.089e-01           0.070          -0.031          -0.997       5.213e-01         -0.2143
 462       2.215e+00      -1.698e+00      -1.292e-01           0.018          -0.050          -0.999       5.054e-01         -0.2109
 463       1.787e+00      -1.698e+00      -1.293e-01          -0.019          -0.064          -0.998       4.612e-01         -0.2118
 464       1.410e+00      -1.698e+00      -1.145e-01          -0.062          -0.081          -0.995       3.910e-01         -0.2315
 465       1.107e+00      -1.698e+00      -8.501e-02          -0.141          -0.113          -0.984       3.001e-01         -0.2603
 466       8.937e-01      -1.698e+00      -3.836e-02          -0.317          -0.187          -0.930       1.982e-01         -0.2417
 467       7.842e-01      -1.698e+00       3.293e-02          -0.782          -0.371          -0.500       1.250e-01          0.6052
 468       7.842e-01      -1.697e+00       1.202e-01          -0.797          -0.332           0.505       1.242e-01          0.3375
 469       8.937e-01      -1.697e+00       1.900e-01          -0.300          -0.094           0.949       1.941e-01         -0.6584
 470       1.107e+00      -1.697e+00       2.337e-01          -0.135          -0.021           0.991       2.979e-01         -0.4565
 471       1.410e+00      -1.697e+00       2.628e-01          -0.065           0.008           0.998       3.897e-01         -0.3665
 472       1.787e+00      -1.697e+00       2.797e-01          -0.027           0.024           0.999       4.603e-01         -0.3184
 473       2.215e+00      -1.697e+00       2.862e-01          -0.004           0.032           0.999       5.047e-01         -0.2953
 474       2.670e+00      -1.697e+00       2.838e-01           0.015           0.039           0.999       5.200e-01         -0.2925
 475       3.124e+00      -1.697e+00       2.721e-01           0.037           0.046           0.998       5.053e-01         -0.3010
 476       3.552e+00      -1.697e+00       2.496e-01           0.070           0.056           0.996       4.619e-01         -0.3145
 477       3.929e+00      -1.697e+00       2.138e-01           0.124           0.071           0.990       3.929e-01         -0.3181
 478       4.233e+00      -1.697e+00       1.656e-01           0.198           0.090           0.976       3.024e-01         -0.2663
 479       4.446e+00      -1.697e+00       1.159e-01           0.271           0.108           0.956       1.926e-01         -0.0908
 480       4.555e+00      -1.698e+00       8.286e-02           0.330           0.121           0.936       6.689e-02          0.0598
Strip 19
 481       4.285e+00      -5.671e-01       3.009e-02          -0.278          -0.110          -0.954       7.015e-02          0.3401
 482       4.169e+00      -5.671e-01       5.558e-02          -0.190          -0.089          -0.978       2.014e-01          0.3902
 483       3.943e+00      -5.671e-01       7.566e-02          -0.023          -0.049          -0.999       3.159e-01          0.4219
 484       3.621e+00      -5.671e-01       5.778e-02           0.114          -0.012          -0.993       4.185e-01          0.3452
 485       3.221e+00      -5.672e-01      -1.121e-02           0.216           0.017          -0.976       5.037e-01          0.1834
 486       2.766e+00      -5.672e-01      -1.068e-01           0.197           0.011          -0.980       5.501e-01         -0.0765
 487       2.284e+00      -5.673e-01      -1.717e-01           0.070          -0.031          -0.997       5.571e-01         -0.2297
 488       1.801e+00      -5.673e-01      -1.932e-01           0.018          -0.050          -0.999       5.401e-01         -0.2140
 489       1.347e+00      -5.673e-01      -1.933e-01          -0.019          -0.064          -0.998       4.930e-01         -0.2041
 490       9.467e-01      -5.673e-01      -1.776e-01          -0.062          -0.081          -0.995       4.180e-01         -0.2146
 491       6.244e-01      -5.673e-01      -1.463e-01          -0.141          -0.113          -0.984       3.208e-01         -0.2388
 492       3.985e-01      -5.672e-01      -9.680e-02          -0.317          -0.187          -0.930       2.118e-01         -0.2317
 493       2.822e-01      -5.672e-01      -2.112e-02          -0.782          -0.371          -0.501       1.336e-01          0.5925
 494       2.822e-01      -5.671e-01       7.154e-02          -0.797          -0.332           0.505       1.327e-01          0.3895
 495       3.985e-01      -5.671e-01       1.456e-01          -0.300          -0.094           0.949       2.075e-01         -0.5638
 496       6.244e-01      -5.670e-01       1.920e-01          -0.135          -0.021           0.991       3.184e-01         -0.3949
 497       9.467e-01      -5.670e-01       2.229e-01          -0.065           0.008           0.998       4.165e-01         -0.3269
 498       1.347e+00      -5.670e-01       2.408e-01          -0.027           0.024           0.999       4.920e-01         -0.2946
 499       1.801e+00      -5.670e-01       2.478e-01          -0.004           0.032           0.999       5.394e-01         -0.2827
 500       2.284e+00      -5.670e-01       2.452e-01           0.015           0.039           0.999       5.557e-01         -0.2892
 501       2.766e+00      -5.670e-01       2.328e-01           0.037           0.046           0.998       5.400e-01         -0.3057
 502       3.221e+00      -5.670e-01       2.089e-01           0.070           0.056           0.996       4.936e-01         -0.3241
 503       3.621e+00      -5.671e-01       1.709e-01           0.124           0.071           0.990       4.199e-01         -0.3289
 504       3.943e+00      -5.671e-01       1.198e-01           0.198           0.090           0.976       3.232e-01         -0.2759
 505       4.169e+00      -5.671e-01       6.691e-02           0.271           0.108           0.956       2.059e-01         -0.0983
 506       4.285e+00      -5.671e-01       3.188e-02           0.330           0.121           0.936       7.150e-02          0.0541
Strip 20
 507       4.285e+00       5.671e-01       3.009e-02          -0.278           0.110          -0.954       7.015e-02          0.3401
 508       4.169e+00       5.671e-01       5.558e-02          -0.190           0.089          -0.978       2.014e-01          0.3902
 509       3.943e+00       5.671e-01       7.566e-02          -0.023           0.049          -0.999       3.159e-01          0.4219
 510       3.621e+00       5.671e-01       5.778e-02           0.114           0.012          -0.993       4.185e-01          0.3452
 511       3.221e+00       5.672e-01      -1.121e-02           0.216          -0.017          -0.976       5.037e-01          0.1834
 512       2.766e+00       5.672e-01      -1.068e-01           0.197          -0.011          -0.980       5.501e-01         -0.0765
 513       2.284e+00       5.673e-01      -1.717e-01           0.070           0.031          -0.997       5.571e-01         -0.2297
 514       1.801e+00       5.673e-01      -1.932e-01           0.018           0.050          -0.999       5.401e-01         -0.2140
 515       1.347e+00       5.673e-01      -1.933e-01          -0.019           0.064          -0.998       4.930e-01         -0.2041
 516       9.467e-01       5.673e-01      -1.776e-01          -0.062           0.081          -0.995       4.180e-01         -0.2146
 517       6.244e-01       5.673e-01      -1.463e-01          -0.141           0.113          -0.984       3.208e-01         -0.2388
 518       3.985e-01       5.672e-01      -9.680e-02          -0.317           0.187          -0.930       2.118e-01         -0.2317
 519       2.822e-01       5.672e-01      -2.112e-02          -0.782           0.371          -0.501       1.336e-01          0.5925
 520       2.822e-01       5.671e-01       7.154e-02          -0.797           0.332           0.505       1.327e-01          0.3895
 521       3.985e-01       5.671e-01       1.456e-01          -0.300           0.094           0.949       2.075e-01         -0.5638
 522       6.244e-01       5.670e-01       1.920e-01          -0.135           0.021           0.991       3.184e-01         -0.3949
 523       9.467e-01       5.670e-01       2.229e-01          -0.065          -0.008           0.998       4.165e-01         -0.3269
 524       1.347e+00       5.670e-01       2.408e-01          -0.027          -0.024           0.999       4.920e-01         -0.2946
 525       1.801e+00       5.670e-01       2.478e-01          -0.004          -0.032           0.999       5.394e-01         -0.2827
 526       2.284e+00       5.670e-01       2.452e-01           0.015          -0.039           0.999       5.557e-01         -0.2892
 527       2.766e+00       5.670e-01       2.328e-01           0.037          -0.046           0.998       5.400e-01         -0.3057
 528       3.221e+00       5.670e-01       2.089e-01           0.070          -0.056           0.996       4.936e-01         -0.3241
 529       3.621e+00       5.671e-01       1.709e-01           0.124          -0.071           0.990       4.199e-01         -0.3289
 530       3.943e+00       5.671e-01       1.198e-01           0.198          -0.090           0.976       3.232e-01         -0.2759
 531       4.169e+00       5.671e-01       6.691e-02           0.271          -0.108           0.956       2.059e-01         -0.0983
 532       4.285e+00       5.671e-01       3.188e-02           0.330          -0.121           0.936       7.150e-02          0.0541
Strip 21
 533       4.555e+00       1.698e+00       8.117e-02          -0.278           0.110          -0.954       6.563e-02          0.3409
 534       4.446e+00       1.698e+00       1.052e-01          -0.190           0.089          -0.978       1.884e-01          0.3925
 535       4.233e+00       1.697e+00       1.241e-01          -0.023           0.049          -0.999       2.956e-01          0.4264
 536       3.929e+00       1.698e+00       1.073e-01           0.114           0.012          -0.993       3.915e-01          0.3555
 537       3.552e+00       1.698e+00       4.226e-02           0.216          -0.017          -0.976       4.714e-01          0.2017
 538       3.124e+00       1.698e+00      -4.778e-02           0.197          -0.011          -0.980       5.147e-01         -0.0542
 539       2.670e+00       1.698e+00      -1.089e-01           0.070           0.031          -0.997       5.213e-01         -0.2143
 540       2.215e+00       1.698e+00      -1.292e-01           0.018           0.050          -0.999       5.054e-01         -0.2109
 541       1.787e+00       1.698e+00      -1.293e-01          -0.019           0.064          -0.998       4.612e-01         -0.2118
 542       1.410e+00       1.698e+00      -1.145e-01          -0.062           0.081          -0.995       3.910e-01         -0.2315
 543       1.107e+00       1.698e+00      -8.501e-02          -0.141           0.113          -0.984       3.001e-01         -0.2603
 544       8.937e-01       1.698e+00      -3.836e-02          -0.317           0.187          -0.930       1.982e-01         -0.2417
 545       7.842e-01       1.698e+00       3.293e-02          -0.782           0.371          -0.500       1.250e-01          0.6052
 546       7.842e-01       1.697e+00       1.202e-01          -0.797           0.332           0.505       1.242e-01          0.3375
 547       8.937e-01       1.697e+00       1.900e-01          -0.300           0.094           0.949       1.941e-01         -0.6584
 548       1.107e+00       1.697e+00       2.337e-01          -0.135           0.021           0.991       2.979e-01         -0.4565
 549       1.410e+00       1.697e+00       2.628e-01          -0.065          -0.008           0.998       3.897e-01         -0.3665
 550       1.787e+00       1.697e+00       2.797e-01          -0.027          -0.024           0.999       4.603e-01         -0.3184
 551       2.215e+00       1.697e+00       2.862e-01          -0.004          -0.032           0.999       5.047e-01         -0.2953
 552       2.670e+00       1.697e+00       2.838e-01           0.015          -0.039           0.999       5.200e-01         -0.2925
 553       3.124e+00       1.697e+00       2.721e-01           0.037          -0.046           0.998       5.053e-01         -0.3010
 554       3.552e+00       1.697e+00       2.496e-01           0.070          -0.056           0.996       4.619e-01         -0.3145
 555       3.929e+00       1.697e+00       2.138e-01           0.124          -0.071           0.990       3.929e-01         -0.3181
 556       4.233e+00       1.697e+00       1.656e-01           0.198          -0.090           0.976       3.024e-01         -0.2663
 557       4.446e+00       1.697e+00       1.159e-01           0.271          -0.108           0.956       1.926e-01         -0.0908
 558       4.555e+00       1.698e+00       8.286e-02           0.330          -0.121           0.936       6.689e-02          0.0598
Strip 22
 559       4.823e+00       2.816e+00       1.317e-01          -0.278           0.110          -0.954       6.079e-02          0.3425
 560       4.720e+00       2.816e+00       1.543e-01          -0.190           0.089          -0.978       1.745e-01          0.3942
 561       4.520e+00       2.816e+00       1.720e-01          -0.023           0.049          -0.999       2.738e-01          0.4284
 562       4.235e+00       2.816e+00       1.562e-01           0.114           0.012          -0.993       3.627e-01          0.3584
[...]
 853       5.928e+00       1.233e+01       4.730e-01          -0.019           0.064          -0.998       8.607e-02         -0.1814
 854       5.769e+00       1.233e+01       4.792e-01          -0.062           0.081          -0.995       7.293e-02         -0.1902
 855       5.641e+00       1.233e+01       4.916e-01          -0.141           0.114          -0.983       5.592e-02         -0.1947
 856       5.551e+00       1.233e+01       5.113e-01          -0.319           0.188          -0.929       3.683e-02         -0.1175
 857       5.505e+00       1.233e+01       5.413e-01          -0.787           0.373          -0.492       2.320e-02          0.6932
 858       5.505e+00       1.233e+01       5.780e-01          -0.792           0.330           0.513       2.330e-02          0.1639
 859       5.551e+00       1.233e+01       6.074e-01          -0.299           0.094           0.950       3.638e-02         -0.8527
 860       5.641e+00       1.233e+01       6.258e-01          -0.135           0.021           0.991       5.571e-02         -0.5599
 861       5.769e+00       1.233e+01       6.381e-01          -0.065          -0.008           0.998       7.280e-02         -0.4320
 862       5.928e+00       1.233e+01       6.452e-01          -0.027          -0.024           0.999       8.594e-02         -0.3611
 863       6.109e+00       1.233e+01       6.480e-01          -0.004          -0.032           0.999       9.420e-02         -0.3221
 864       6.300e+00       1.233e+01       6.469e-01           0.015          -0.039           0.999       9.703e-02         -0.3076
 865       6.492e+00       1.233e+01       6.420e-01           0.037          -0.046           0.998       9.427e-02         -0.3078
 866       6.673e+00       1.233e+01       6.325e-01           0.070          -0.056           0.996       8.615e-02         -0.3162
 867       6.831e+00       1.233e+01       6.175e-01           0.124          -0.071           0.990       7.325e-02         -0.3170
 868       6.959e+00       1.233e+01       5.972e-01           0.198          -0.090           0.976       5.635e-02         -0.2634
 869       7.049e+00       1.233e+01       5.762e-01           0.272          -0.108           0.956       3.588e-02         -0.0859
 870       7.095e+00       1.233e+01       5.623e-01           0.331          -0.121           0.936       1.246e-02          0.0664
Strip 34
 871       7.204e+00       1.279e+01       5.822e-01          -0.279           0.110          -0.954       9.522e-03          0.3434
 872       7.161e+00       1.278e+01       5.917e-01          -0.190           0.090          -0.978       2.736e-02          0.3939
 873       7.076e+00       1.278e+01       5.992e-01          -0.023           0.049          -0.999       4.297e-02          0.4266
 874       6.956e+00       1.278e+01       5.925e-01           0.114           0.012          -0.993       5.699e-02          0.3569
 875       6.806e+00       1.279e+01       5.668e-01           0.215          -0.017          -0.976       6.868e-02          0.2076
 876       6.636e+00       1.279e+01       5.311e-01           0.196          -0.011          -0.980       7.500e-02         -0.0398
 877       6.456e+00       1.279e+01       5.069e-01           0.070           0.031          -0.997       7.586e-02         -0.1946
 878       6.275e+00       1.279e+01       4.988e-01           0.018           0.050          -0.999       7.350e-02         -0.1896
 879       6.106e+00       1.279e+01       4.988e-01          -0.019           0.064          -0.998       6.705e-02         -0.1871
 880       5.956e+00       1.279e+01       5.046e-01          -0.062           0.081          -0.995       5.681e-02         -0.1972
 881       5.835e+00       1.279e+01       5.163e-01          -0.141           0.114          -0.983       4.355e-02         -0.2038
 882       5.751e+00       1.279e+01       5.348e-01          -0.319           0.188          -0.929       2.868e-02         -0.1317
 883       5.708e+00       1.279e+01       5.631e-01          -0.787           0.373          -0.491       1.806e-02          0.6851
 884       5.708e+00       1.278e+01       5.977e-01          -0.792           0.329           0.514       1.816e-02          0.1780
 885       5.751e+00       1.278e+01       6.253e-01          -0.299           0.094           0.950       2.835e-02         -0.8329
 886       5.835e+00       1.278e+01       6.426e-01          -0.134           0.021           0.991       4.341e-02         -0.5474
 887       5.956e+00       1.278e+01       6.542e-01          -0.065          -0.008           0.998       5.672e-02         -0.4210
 888       6.106e+00       1.278e+01       6.609e-01          -0.027          -0.024           0.999       6.695e-02         -0.3501
 889       6.275e+00       1.278e+01       6.635e-01          -0.004          -0.032           0.999       7.338e-02         -0.3104
 890       6.456e+00       1.278e+01       6.625e-01           0.015          -0.039           0.999       7.559e-02         -0.2953
 891       6.636e+00       1.278e+01       6.579e-01           0.037          -0.046           0.998       7.344e-02         -0.2957
 892       6.806e+00       1.278e+01       6.490e-01           0.070          -0.056           0.996       6.710e-02         -0.3053
 893       6.956e+00       1.278e+01       6.348e-01           0.124          -0.071           0.990       5.706e-02         -0.3083
 894       7.076e+00       1.278e+01       6.157e-01           0.198          -0.090           0.976       4.389e-02         -0.2575
 895       7.161e+00       1.278e+01       5.959e-01           0.272          -0.108           0.956       2.795e-02         -0.0827
 896       7.204e+00       1.279e+01       5.829e-01           0.331          -0.121           0.936       9.700e-03          0.0680
Strip 35
 897       7.292e+00       1.315e+01       5.988e-01          -0.279           0.110          -0.954       7.095e-03          0.3401
 898       7.251e+00       1.315e+01       6.079e-01          -0.190           0.090          -0.978       2.039e-02          0.3897
 899       7.171e+00       1.315e+01       6.150e-01          -0.023           0.049          -0.999       3.203e-02          0.4217
 900       7.056e+00       1.315e+01       6.087e-01           0.114           0.012          -0.993       4.248e-02          0.3524
 901       6.914e+00       1.315e+01       5.842e-01           0.215          -0.017          -0.976       5.120e-02          0.2042
 902       6.753e+00       1.316e+01       5.503e-01           0.196          -0.011          -0.981       5.591e-02         -0.0419
 903       6.582e+00       1.316e+01       5.273e-01           0.070           0.031          -0.997       5.654e-02         -0.1963
 904       6.410e+00       1.316e+01       5.197e-01           0.018           0.050          -0.999       5.478e-02         -0.1929
 905       6.249e+00       1.316e+01       5.197e-01          -0.019           0.064          -0.998       4.997e-02         -0.1933
 906       6.107e+00       1.316e+01       5.252e-01          -0.062           0.081          -0.995       4.234e-02         -0.2070
 907       5.993e+00       1.316e+01       5.363e-01          -0.141           0.114          -0.983       3.245e-02         -0.2180
 908       5.912e+00       1.316e+01       5.539e-01          -0.319           0.188          -0.929       2.137e-02         -0.1546
 909       5.871e+00       1.315e+01       5.807e-01          -0.787           0.373          -0.491       1.346e-02          0.6703
 910       5.871e+00       1.315e+01       6.135e-01          -0.791           0.329           0.515       1.355e-02          0.1984
 911       5.912e+00       1.315e+01       6.398e-01          -0.299           0.094           0.950       2.114e-02         -0.8037
 912       5.993e+00       1.315e+01       6.562e-01          -0.134           0.021           0.991       3.236e-02         -0.5278
 913       6.107e+00       1.315e+01       6.672e-01          -0.065          -0.008           0.998       4.228e-02         -0.4027
 914       6.249e+00       1.315e+01       6.735e-01          -0.027          -0.024           0.999       4.990e-02         -0.3304
 915       6.410e+00       1.315e+01       6.760e-01          -0.004          -0.032           0.999       5.470e-02         -0.2885
 916       6.582e+00       1.315e+01       6.751e-01           0.015          -0.039           0.999       5.634e-02         -0.2723
 917       6.753e+00       1.315e+01       6.707e-01           0.037          -0.046           0.998       5.473e-02         -0.2733
 918       6.914e+00       1.315e+01       6.622e-01           0.070          -0.056           0.996       5.001e-02         -0.2856
 919       7.056e+00       1.315e+01       6.487e-01           0.124          -0.071           0.990       4.252e-02         -0.2935
 920       7.171e+00       1.315e+01       6.306e-01           0.198          -0.090           0.976       3.271e-02         -0.2484
 921       7.251e+00       1.315e+01       6.119e-01           0.272          -0.108           0.956       2.082e-02         -0.0791
 922       7.292e+00       1.315e+01       5.995e-01           0.331          -0.121           0.936       7.228e-03          0.0688
Strip 36
 923       7.359e+00       1.343e+01       6.114e-01          -0.279           0.110          -0.954       4.897e-03          0.3247
 924       7.319e+00       1.343e+01       6.201e-01          -0.190           0.090          -0.978       1.407e-02          0.3725
 925       7.242e+00       1.343e+01       6.269e-01          -0.023           0.049          -0.999       2.211e-02          0.4037
 926       7.132e+00       1.343e+01       6.208e-01           0.114           0.012          -0.993       2.933e-02          0.3374
 927       6.996e+00       1.343e+01       5.974e-01           0.215          -0.017          -0.976       3.535e-02          0.1955
 928       6.841e+00       1.343e+01       5.649e-01           0.196          -0.011          -0.981       3.860e-02         -0.0423
 929       6.677e+00       1.343e+01       5.428e-01           0.070           0.031          -0.997       3.904e-02         -0.1897
 930       6.512e+00       1.344e+01       5.355e-01           0.018           0.050          -0.999       3.782e-02         -0.1861
 931       6.357e+00       1.344e+01       5.354e-01          -0.019           0.064          -0.998       3.449e-02         -0.1925
 932       6.221e+00       1.343e+01       5.408e-01          -0.062           0.081          -0.995       2.922e-02         -0.2161
 933       6.111e+00       1.343e+01       5.514e-01          -0.141           0.114          -0.983       2.240e-02         -0.2381
 934       6.034e+00       1.343e+01       5.683e-01          -0.319           0.188          -0.929       1.475e-02         -0.1901
 935       5.995e+00       1.343e+01       5.940e-01          -0.788           0.373          -0.490       9.285e-03          0.6422
 936       5.995e+00       1.343e+01       6.255e-01          -0.791           0.329           0.516       9.354e-03          0.2190
 937       6.034e+00       1.343e+01       6.507e-01          -0.299           0.094           0.950       1.460e-02         -0.7671
 938       6.111e+00       1.343e+01       6.665e-01          -0.134           0.021           0.991       2.234e-02         -0.4997
 939       6.221e+00       1.343e+01       6.770e-01          -0.065          -0.008           0.998       2.919e-02         -0.3721
 940       6.357e+00       1.343e+01       6.831e-01          -0.027          -0.024           0.999       3.445e-02         -0.2946
 941       6.512e+00       1.343e+01       6.855e-01          -0.004          -0.032           0.999       3.776e-02         -0.2501
 942       6.677e+00       1.343e+01       6.846e-01           0.015          -0.039           0.999       3.889e-02         -0.2341
 943       6.841e+00       1.343e+01       6.804e-01           0.037          -0.046           0.998       3.778e-02         -0.2376
 944       6.996e+00       1.343e+01       6.723e-01           0.070          -0.056           0.996       3.452e-02         -0.2550
 945       7.132e+00       1.343e+01       6.593e-01           0.124          -0.071           0.990       2.935e-02         -0.2712
 946       7.242e+00       1.343e+01       6.419e-01           0.198          -0.090           0.976       2.257e-02         -0.2377
 947       7.319e+00       1.343e+01       6.239e-01           0.272          -0.108           0.956       1.437e-02         -0.0809
 948       7.359e+00       1.343e+01       6.120e-01           0.331          -0.121           0.936       4.989e-03          0.0608
Strip 37
 949       7.403e+00       1.362e+01       6.199e-01          -0.279           0.110          -0.954       2.869e-03          0.2584
 950       7.365e+00       1.362e+01       6.283e-01          -0.190           0.090          -0.978       8.243e-03          0.2989
 951       7.290e+00       1.362e+01       6.349e-01          -0.023           0.049          -0.999       1.295e-02          0.3336
 952       7.183e+00       1.362e+01       6.290e-01           0.114           0.012          -0.993       1.718e-02          0.2858
 953       7.051e+00       1.362e+01       6.062e-01           0.215          -0.017          -0.976       2.071e-02          0.1688
 954       6.900e+00       1.362e+01       5.746e-01           0.196          -0.011          -0.981       2.262e-02         -0.0412
 955       6.741e+00       1.362e+01       5.531e-01           0.070           0.031          -0.997       2.287e-02         -0.1682
 956       6.581e+00       1.362e+01       5.460e-01           0.018           0.050          -0.999       2.215e-02         -0.1600
 957       6.430e+00       1.362e+01       5.460e-01          -0.019           0.064          -0.998       2.021e-02         -0.1689
 958       6.298e+00       1.362e+01       5.512e-01          -0.062           0.081          -0.995       1.712e-02         -0.2053
 959       6.191e+00       1.362e+01       5.615e-01          -0.141           0.114          -0.983       1.312e-02         -0.2557
 960       6.116e+00       1.362e+01       5.779e-01          -0.319           0.188          -0.929       8.637e-03         -0.2488
 961       6.078e+00       1.362e+01       6.029e-01          -0.788           0.373          -0.489       5.437e-03          0.5652
 962       6.078e+00       1.362e+01       6.336e-01          -0.791           0.329           0.516       5.482e-03          0.2122
 963       6.116e+00       1.362e+01       6.580e-01          -0.298           0.093           0.950       8.553e-03         -0.7233
 964       6.191e+00       1.362e+01       6.734e-01          -0.134           0.021           0.991       1.309e-02         -0.4491
 965       6.298e+00       1.362e+01       6.836e-01          -0.065          -0.008           0.998       1.710e-02         -0.3123
 966       6.430e+00       1.362e+01       6.895e-01          -0.027          -0.024           0.999       2.018e-02         -0.2362
 967       6.581e+00       1.362e+01       6.918e-01          -0.004          -0.032           0.999       2.212e-02         -0.1979
 968       6.741e+00       1.362e+01       6.909e-01           0.015          -0.039           0.999       2.278e-02         -0.1861
 969       6.900e+00       1.362e+01       6.869e-01           0.037          -0.046           0.998       2.213e-02         -0.1924
 970       7.051e+00       1.362e+01       6.790e-01           0.070          -0.056           0.996       2.022e-02         -0.2160
 971       7.183e+00       1.362e+01       6.664e-01           0.124          -0.071           0.990       1.719e-02         -0.2483
 972       7.290e+00       1.362e+01       6.495e-01           0.198          -0.090           0.976       1.322e-02         -0.2442
 973       7.365e+00       1.362e+01       6.320e-01           0.272          -0.108           0.956       8.419e-03         -0.1218
 974       7.403e+00       1.362e+01       6.204e-01           0.331          -0.121           0.936       2.922e-03          0.0033
Strip 38
 975       7.426e+00       1.371e+01       6.241e-01          -0.279           0.110          -0.954       9.444e-04          0.1808
 976       7.388e+00       1.371e+01       6.324e-01          -0.190           0.090          -0.978       2.714e-03          0.1825
 977       7.314e+00       1.371e+01       6.389e-01          -0.023           0.049          -0.999       4.264e-03          0.1920
 978       7.209e+00       1.371e+01       6.331e-01           0.114           0.012          -0.993       5.657e-03          0.1691
 979       7.078e+00       1.371e+01       6.106e-01           0.215          -0.017          -0.976       6.819e-03          0.1053
 980       6.930e+00       1.371e+01       5.795e-01           0.196          -0.011          -0.981       7.447e-03         -0.0404
 981       6.772e+00       1.372e+01       5.584e-01           0.070           0.031          -0.997       7.530e-03         -0.1326
 982       6.615e+00       1.372e+01       5.513e-01           0.018           0.050          -0.999       7.294e-03         -0.1254
 983       6.467e+00       1.372e+01       5.513e-01          -0.019           0.064          -0.998       6.653e-03         -0.1319
 984       6.336e+00       1.372e+01       5.564e-01          -0.062           0.081          -0.995       5.636e-03         -0.1598
 985       6.231e+00       1.371e+01       5.666e-01          -0.141           0.114          -0.983       4.320e-03         -0.2113
 986       6.157e+00       1.371e+01       5.828e-01          -0.319           0.188          -0.929       2.843e-03         -0.2455
 987       6.119e+00       1.371e+01       6.074e-01          -0.788           0.373          -0.489       1.790e-03          0.4949
 988       6.119e+00       1.371e+01       6.376e-01          -0.791           0.329           0.516       1.805e-03          0.2268
 989       6.157e+00       1.371e+01       6.617e-01          -0.298           0.093           0.950       2.816e-03         -0.6054
 990       6.231e+00       1.371e+01       6.768e-01          -0.134           0.021           0.991       4.310e-03         -0.3489
 991       6.336e+00       1.371e+01       6.869e-01          -0.065          -0.008           0.998       5.630e-03         -0.2362
 992       6.467e+00       1.371e+01       6.927e-01          -0.027          -0.024           0.999       6.645e-03         -0.1822
 993       6.615e+00       1.371e+01       6.950e-01          -0.004          -0.032           0.999       7.283e-03         -0.1550
 994       6.772e+00       1.371e+01       6.941e-01           0.015          -0.039           0.999       7.501e-03         -0.1434
 995       6.930e+00       1.371e+01       6.901e-01           0.037          -0.046           0.998       7.287e-03         -0.1417
 996       7.078e+00       1.371e+01       6.823e-01           0.070          -0.056           0.996       6.658e-03         -0.1527
 997       7.209e+00       1.371e+01       6.699e-01           0.124          -0.071           0.990       5.661e-03         -0.1813
 998       7.314e+00       1.371e+01       6.533e-01           0.198          -0.090           0.976       4.354e-03         -0.2049
 999       7.388e+00       1.371e+01       6.361e-01           0.272          -0.108           0.956       2.772e-03         -0.1376
1000       7.426e+00       1.371e+01       6.247e-01           0.331          -0.121           0.936       9.621e-04         -0.0457










