xflr5 v6.61

Plane Name
T1-10.0 m/s-Panel-Inviscid
QInf  =   10.000000 m/s
Alpha =   10.000000
Beta  =    0.000°
Phi   =    0.000°
Ctrl  =    0.000
CL    =    1.165907
Cy    =   -0.000000
Cd    =    0.042142     ICd   =    0.042142     PCd   =    0.000000
Cl   = -9.13634e-15
Cm   =    -1.45991
ICn   =    0.000000     PCn   =    0.000000 
XCP   =    3.715018     YCP   =    0.000000     ZCP   =    0.349875  
XNP   =    0.000000
Bending = 14398.089478

Main Wing
  y-span        Chord      Ai         Cl        PCd          ICd        CmGeom    CmAirf@chord/4    XTrtop    XTrBot      XCP       BM
  -13.7265     1.3259    -9.048    0.397470    0.000000    0.063292   -2.144107   -0.006326     0.0000    0.0000    0.2624    0.0000
  -13.6328     1.3454    -6.886    0.653391    0.000000    0.078891   -3.309010   -0.043264     0.0000    0.0000    0.3112    0.1456
  -13.4459     1.3842    -5.299    0.872429    0.000000    0.080898   -4.164388   -0.053427     0.0000    0.0000    0.3073    1.8851
  -13.1671     1.4422    -4.156    1.035792    0.000000    0.075228   -4.685884   -0.068391     0.0000    0.0000    0.3121    9.4061
  -12.7984     1.5189    -3.310    1.147668    0.000000    0.066333   -4.844087   -0.081238     0.0000    0.0000    0.3167   30.5611
  -12.3423     1.6137    -2.685    1.217626    0.000000    0.057039   -4.716433   -0.090159     0.0000    0.0000    0.3198   77.3440
  -11.8019     1.7261    -2.249    1.256765    0.000000    0.049297   -4.403627   -0.095662     0.0000    0.0000    0.3218   166.0339
  -11.1809     1.8552    -1.972    1.274604    0.000000    0.043807   -3.990744   -0.098888     0.0000    0.0000    0.3232   317.1343
  -10.4834     2.0002    -1.815    1.277966    0.000000    0.040412   -3.537321   -0.100749     0.0000    0.0000    0.3244   555.1571
   -9.7144     2.1601    -1.746    1.271306    0.000000    0.038658   -3.081056   -0.101817     0.0000    0.0000    0.3257   908.2258
   -8.8790     2.3338    -1.740    1.257377    0.000000    0.038086   -2.644005   -0.102430     0.0000    0.0000    0.3270   1407.4463
   -7.9830     2.5201    -1.778    1.237785    0.000000    0.038310   -2.238101   -0.102771     0.0000    0.0000    0.3286   2086.0024
   -7.0324     2.7178    -1.849    1.213381    0.000000    0.039032   -1.868812   -0.102961     0.0000    0.0000    0.3303   2977.9515
   -6.0338     2.9254    -1.941    1.184470    0.000000    0.039991   -1.537772   -0.103092     0.0000    0.0000    0.3325   4116.7217
   -4.9940     3.1416    -2.046    1.150937    0.000000    0.040939   -1.244466   -0.103278     0.0000    0.0000    0.3352   5533.3345
   -3.9200     3.3649    -2.152    1.112268    0.000000    0.041564   -0.987355   -0.103730     0.0000    0.0000    0.3386   7254.4019
   -2.8193     3.5938    -2.237    1.067492    0.000000    0.041371   -0.764717   -0.104938     0.0000    0.0000    0.3436   9299.9568
   -1.6993     3.8267    -2.251    1.014881    0.000000    0.039337   -0.575732   -0.108257     0.0000    0.0000    0.3519   11681.1877
   -0.5677     4.0620    -2.006    0.947879    0.000000    0.031493   -0.422495   -0.118435     0.0000    0.0000    0.3697   14398.0895
    0.5677     4.0620    -2.006    0.947879    0.000000    0.031493   -0.422495   -0.118435     0.0000    0.0000    0.3697   14398.0895
    1.6993     3.8267    -2.251    1.014881    0.000000    0.039337   -0.575732   -0.108257     0.0000    0.0000    0.3519   11681.1877
    2.8193     3.5938    -2.237    1.067492    0.000000    0.041371   -0.764717   -0.104938     0.0000    0.0000    0.3436   9299.9568
    3.9200     3.3649    -2.152    1.112268    0.000000    0.041564   -0.987355   -0.103730     0.0000    0.0000    0.3386   7254.4019
    4.9940     3.1416    -2.046    1.150937    0.000000    0.040939   -1.244466   -0.103278     0.0000    0.0000    0.3352   5533.3345
    6.0338     2.9254    -1.941    1.184470    0.000000    0.039991   -1.537772   -0.103092     0.0000    0.0000    0.3325   4116.7217
    7.0324     2.7178    -1.849    1.213381    0.000000    0.039032   -1.868812   -0.102961     0.0000    0.0000    0.3303   2977.9515
    7.9830     2.5201    -1.778    1.237785    0.000000    0.038310   -2.238101   -0.102771     0.0000    0.0000    0.3286   2086.0024
    8.8790     2.3338    -1.740    1.257377    0.000000    0.038086   -2.644005   -0.102430     0.0000    0.0000    0.3270   1407.4463
    9.7144     2.1601    -1.746    1.271306    0.000000    0.038658   -3.081056   -0.101817     0.0000    0.0000    0.3257   908.2258
   10.4834     2.0002    -1.815    1.277966    0.000000    0.040412   -3.537321   -0.100749     0.0000    0.0000    0.3244   555.1571
   11.1809     1.8552    -1.972    1.274604    0.000000    0.043807   -3.990744   -0.098888     0.0000    0.0000    0.3232   317.1343
   11.8019     1.7261    -2.249    1.256765    0.000000    0.049297   -4.403627   -0.095662     0.0000    0.0000    0.3218   166.0339
   12.3423     1.6137    -2.685    1.217626    0.000000    0.057039   -4.716433   -0.090159     0.0000    0.0000    0.3198   77.3440
   12.7984     1.5189    -3.310    1.147668    0.000000    0.066333   -4.844087   -0.081238     0.0000    0.0000    0.3167   30.5611
   13.1671     1.4422    -4.156    1.035792    0.000000    0.075228   -4.685884   -0.068391     0.0000    0.0000    0.3121    9.4061
   13.4459     1.3842    -5.299    0.872429    0.000000    0.080898   -4.164388   -0.053427     0.0000    0.0000    0.3073    1.8851
   13.6328     1.3454    -6.886    0.653391    0.000000    0.078891   -3.309010   -0.043264     0.0000    0.0000    0.3112    0.1456
   13.7265     1.3259    -9.048    0.397470    0.000000    0.063292   -2.144107   -0.006326     0.0000    0.0000    0.2624    0.0000


Main Wing Cp Coefficients
 Panel     CtrlPt.x        CtrlPt.y        CtrlPt.z       Nx      Ny       Nz        Area       Cp
Main WingCp Coefficients
Strip 1
  13       7.426e+00      -1.371e+01       6.241e-01          -0.279          -0.110          -0.954       9.444e-04         -0.8633
  14       7.388e+00      -1.371e+01       6.324e-01          -0.190          -0.090          -0.978       2.714e-03         -0.9395
  15       7.314e+00      -1.371e+01       6.389e-01          -0.023          -0.049          -0.999       4.264e-03         -0.8861
  16       7.209e+00      -1.371e+01       6.331e-01           0.114          -0.012          -0.993       5.657e-03         -0.6829
  17       7.078e+00      -1.371e+01       6.106e-01           0.215           0.017          -0.976       6.819e-03         -0.4602
  18       6.930e+00      -1.371e+01       5.795e-01           0.196           0.011          -0.981       7.447e-03         -0.3502
  19       6.772e+00      -1.372e+01       5.584e-01           0.070          -0.031          -0.997       7.530e-03         -0.2864
  20       6.615e+00      -1.372e+01       5.513e-01           0.018          -0.050          -0.999       7.294e-03         -0.2129
  21       6.467e+00      -1.372e+01       5.513e-01          -0.019          -0.064          -0.998       6.653e-03         -0.1507
  22       6.336e+00      -1.372e+01       5.564e-01          -0.062          -0.081          -0.995       5.636e-03         -0.0707
  23       6.231e+00      -1.371e+01       5.666e-01          -0.141          -0.114          -0.983       4.320e-03          0.0798
  24       6.157e+00      -1.371e+01       5.828e-01          -0.319          -0.188          -0.929       2.843e-03          0.3963
  25       6.119e+00      -1.371e+01       6.074e-01          -0.788          -0.373          -0.489       1.790e-03          0.2777
  26       6.119e+00      -1.371e+01       6.376e-01          -0.791          -0.329           0.516       1.805e-03         -2.0060
  27       6.157e+00      -1.371e+01       6.617e-01          -0.298          -0.093           0.950       2.816e-03         -2.2909
  28       6.231e+00      -1.371e+01       6.768e-01          -0.134          -0.021           0.991       4.310e-03         -1.0360
  29       6.336e+00      -1.371e+01       6.869e-01          -0.065           0.008           0.998       5.630e-03         -0.6630
  30       6.467e+00      -1.371e+01       6.927e-01          -0.027           0.024           0.999       6.645e-03         -0.5239
  31       6.615e+00      -1.371e+01       6.950e-01          -0.004           0.032           0.999       7.283e-03         -0.4692
  32       6.772e+00      -1.371e+01       6.941e-01           0.015           0.039           0.999       7.501e-03         -0.4569
  33       6.930e+00      -1.371e+01       6.901e-01           0.037           0.046           0.998       7.287e-03         -0.4963
  34       7.078e+00      -1.371e+01       6.823e-01           0.070           0.056           0.996       6.658e-03         -0.6312
  35       7.209e+00      -1.371e+01       6.699e-01           0.124           0.071           0.990       5.661e-03         -0.8766
  36       7.314e+00      -1.371e+01       6.533e-01           0.198           0.090           0.976       4.354e-03         -1.1276
  37       7.388e+00      -1.371e+01       6.361e-01           0.272           0.108           0.956       2.772e-03         -1.1495
  38       7.426e+00      -1.371e+01       6.247e-01           0.331           0.121           0.936       9.621e-04         -1.0753
Strip 2
  39       7.403e+00      -1.362e+01       6.199e-01          -0.279          -0.110          -0.954       2.869e-03         -0.2774
  40       7.365e+00      -1.362e+01       6.283e-01          -0.190          -0.090          -0.978       8.243e-03         -0.2738
  41       7.290e+00      -1.362e+01       6.349e-01          -0.023          -0.049          -0.999       1.295e-02         -0.2239
  42       7.183e+00      -1.362e+01       6.290e-01           0.114          -0.012          -0.993       1.718e-02         -0.1612
  43       7.051e+00      -1.362e+01       6.062e-01           0.215           0.017          -0.976       2.071e-02         -0.1304
  44       6.900e+00      -1.362e+01       5.746e-01           0.196           0.011          -0.981       2.262e-02         -0.1854
  45       6.741e+00      -1.362e+01       5.531e-01           0.070          -0.031          -0.997       2.287e-02         -0.1947
  46       6.581e+00      -1.362e+01       5.460e-01           0.018          -0.050          -0.999       2.215e-02         -0.1252
  47       6.430e+00      -1.362e+01       5.460e-01          -0.019          -0.064          -0.998       2.021e-02         -0.0498
  48       6.298e+00      -1.362e+01       5.512e-01          -0.062          -0.081          -0.995       1.712e-02          0.0544
  49       6.191e+00      -1.362e+01       5.615e-01          -0.141          -0.114          -0.983       1.312e-02          0.2480
  50       6.116e+00      -1.362e+01       5.779e-01          -0.319          -0.188          -0.929       8.637e-03          0.5808
  51       6.078e+00      -1.362e+01       6.029e-01          -0.788          -0.373          -0.489       5.437e-03          0.0756
  52       6.078e+00      -1.362e+01       6.336e-01          -0.791          -0.329           0.516       5.482e-03         -2.8996
  53       6.116e+00      -1.362e+01       6.580e-01          -0.298          -0.093           0.950       8.553e-03         -3.0418
  54       6.191e+00      -1.362e+01       6.734e-01          -0.134          -0.021           0.991       1.309e-02         -1.3821
  55       6.298e+00      -1.362e+01       6.836e-01          -0.065           0.008           0.998       1.710e-02         -0.8245
  56       6.430e+00      -1.362e+01       6.895e-01          -0.027           0.024           0.999       2.018e-02         -0.5862
  57       6.581e+00      -1.362e+01       6.918e-01          -0.004           0.032           0.999       2.212e-02         -0.4822
  58       6.741e+00      -1.362e+01       6.909e-01           0.015           0.039           0.999       2.278e-02         -0.4493
  59       6.900e+00      -1.362e+01       6.869e-01           0.037           0.046           0.998       2.213e-02         -0.4712
  60       7.051e+00      -1.362e+01       6.790e-01           0.070           0.056           0.996       2.022e-02         -0.5517
  61       7.183e+00      -1.362e+01       6.664e-01           0.124           0.071           0.990       1.719e-02         -0.6679
  62       7.290e+00      -1.362e+01       6.495e-01           0.198           0.090           0.976       1.322e-02         -0.7282
  63       7.365e+00      -1.362e+01       6.320e-01           0.272           0.108           0.956       8.419e-03         -0.6177
  64       7.403e+00      -1.362e+01       6.204e-01           0.331           0.121           0.936       2.922e-03         -0.4847
Strip 3
  65       7.359e+00      -1.343e+01       6.114e-01          -0.279          -0.110          -0.954       4.897e-03          0.2059
  66       7.319e+00      -1.343e+01       6.201e-01          -0.190          -0.090          -0.978       1.407e-02          0.2415
  67       7.242e+00      -1.343e+01       6.269e-01          -0.023          -0.049          -0.999       2.211e-02          0.2606
  68       7.132e+00      -1.343e+01       6.208e-01           0.114          -0.012          -0.993       2.933e-02          0.2120
  69       6.996e+00      -1.343e+01       5.974e-01           0.215           0.017          -0.976       3.535e-02          0.1121
  70       6.841e+00      -1.343e+01       5.649e-01           0.196           0.011          -0.981       3.860e-02         -0.0356
  71       6.677e+00      -1.343e+01       5.428e-01           0.070          -0.031          -0.997       3.904e-02         -0.0757
  72       6.512e+00      -1.344e+01       5.355e-01           0.018          -0.050          -0.999       3.782e-02         -0.0010
  73       6.357e+00      -1.344e+01       5.354e-01          -0.019          -0.064          -0.998       3.449e-02          0.0971
  74       6.221e+00      -1.343e+01       5.408e-01          -0.062          -0.081          -0.995       2.922e-02          0.2352
  75       6.111e+00      -1.343e+01       5.514e-01          -0.141          -0.114          -0.983       2.240e-02          0.4571
  76       6.034e+00      -1.343e+01       5.683e-01          -0.319          -0.188          -0.929       1.475e-02          0.7468
  77       5.995e+00      -1.343e+01       5.940e-01          -0.788          -0.373          -0.490       9.285e-03         -0.1357
  78       5.995e+00      -1.343e+01       6.255e-01          -0.791          -0.329           0.516       9.354e-03         -3.6484
  79       6.034e+00      -1.343e+01       6.507e-01          -0.299          -0.094           0.950       1.460e-02         -3.6435
  80       6.111e+00      -1.343e+01       6.665e-01          -0.134          -0.021           0.991       2.234e-02         -1.7037
  81       6.221e+00      -1.343e+01       6.770e-01          -0.065           0.008           0.998       2.919e-02         -1.0281
  82       6.357e+00      -1.343e+01       6.831e-01          -0.027           0.024           0.999       3.445e-02         -0.7009
  83       6.512e+00      -1.343e+01       6.855e-01          -0.004           0.032           0.999       3.776e-02         -0.5295
  84       6.677e+00      -1.343e+01       6.846e-01           0.015           0.039           0.999       3.889e-02         -0.4443
  85       6.841e+00      -1.343e+01       6.804e-01           0.037           0.046           0.998       3.778e-02         -0.4080
  86       6.996e+00      -1.343e+01       6.723e-01           0.070           0.056           0.996       3.452e-02         -0.4042
  87       7.132e+00      -1.343e+01       6.593e-01           0.124           0.071           0.990       2.935e-02         -0.4038
  88       7.242e+00      -1.343e+01       6.419e-01           0.198           0.090           0.976       2.257e-02         -0.3423
  89       7.319e+00      -1.343e+01       6.239e-01           0.272           0.108           0.956       1.437e-02         -0.1548
  90       7.359e+00      -1.343e+01       6.120e-01           0.331           0.121           0.936       4.989e-03          0.0099
Strip 4
  91       7.292e+00      -1.315e+01       5.988e-01          -0.279          -0.110          -0.954       7.095e-03          0.3082
  92       7.251e+00      -1.315e+01       6.079e-01          -0.190          -0.090          -0.978       2.039e-02          0.3526
  93       7.171e+00      -1.315e+01       6.150e-01          -0.023          -0.049          -0.999       3.203e-02          0.3776
  94       7.056e+00      -1.315e+01       6.087e-01           0.114          -0.012          -0.993       4.248e-02          0.3235
  95       6.914e+00      -1.315e+01       5.842e-01           0.215           0.017          -0.976       5.120e-02          0.2116
  96       6.753e+00      -1.316e+01       5.503e-01           0.196           0.011          -0.981       5.591e-02          0.0531
  97       6.582e+00      -1.316e+01       5.273e-01           0.070          -0.031          -0.997       5.654e-02          0.0106
  98       6.410e+00      -1.316e+01       5.197e-01           0.018          -0.050          -0.999       5.478e-02          0.0917
  99       6.249e+00      -1.316e+01       5.197e-01          -0.019          -0.064          -0.998       4.997e-02          0.2001
 100       6.107e+00      -1.316e+01       5.252e-01          -0.062          -0.081          -0.995       4.234e-02          0.3446
 101       5.993e+00      -1.316e+01       5.363e-01          -0.141          -0.114          -0.983       3.245e-02          0.5599
 102       5.912e+00      -1.316e+01       5.539e-01          -0.319          -0.188          -0.929       2.137e-02          0.7929
 103       5.871e+00      -1.315e+01       5.807e-01          -0.787          -0.373          -0.491       1.346e-02         -0.3786
 104       5.871e+00      -1.315e+01       6.135e-01          -0.791          -0.329           0.515       1.355e-02         -4.2320
 105       5.912e+00      -1.315e+01       6.398e-01          -0.299          -0.094           0.950       2.114e-02         -4.0787
 106       5.993e+00      -1.315e+01       6.562e-01          -0.134          -0.021           0.991       3.236e-02         -1.9276
 107       6.107e+00      -1.315e+01       6.672e-01          -0.065           0.008           0.998       4.228e-02         -1.1886
 108       6.249e+00      -1.315e+01       6.735e-01          -0.027           0.024           0.999       4.990e-02         -0.8239
 109       6.410e+00      -1.315e+01       6.760e-01          -0.004           0.032           0.999       5.470e-02         -0.6184
 110       6.582e+00      -1.315e+01       6.751e-01           0.015           0.039           0.999       5.634e-02         -0.5009
 111       6.753e+00      -1.315e+01       6.707e-01           0.037           0.046           0.998       5.473e-02         -0.4352
 112       6.914e+00      -1.315e+01       6.622e-01           0.070           0.056           0.996       5.001e-02         -0.4038
 113       7.056e+00      -1.315e+01       6.487e-01           0.124           0.071           0.990       4.252e-02         -0.3750
 114       7.171e+00      -1.315e+01       6.306e-01           0.198           0.090           0.976       3.271e-02         -0.2864
 115       7.251e+00      -1.315e+01       6.119e-01           0.272           0.108           0.956       2.082e-02         -0.0793
 116       7.292e+00      -1.315e+01       5.995e-01           0.331           0.121           0.936       7.228e-03          0.0924
Strip 5
 117       7.204e+00      -1.279e+01       5.822e-01          -0.279          -0.110          -0.954       9.522e-03          0.3441
 118       7.161e+00      -1.278e+01       5.917e-01          -0.190          -0.090          -0.978       2.736e-02          0.3930
 119       7.076e+00      -1.278e+01       5.992e-01          -0.023          -0.049          -0.999       4.297e-02          0.4229
 120       6.956e+00      -1.278e+01       5.925e-01           0.114          -0.012          -0.993       5.699e-02          0.3712
 121       6.806e+00      -1.279e+01       5.668e-01           0.215           0.017          -0.976       6.868e-02          0.2613
 122       6.636e+00      -1.279e+01       5.311e-01           0.196           0.011          -0.980       7.500e-02          0.1068
 123       6.456e+00      -1.279e+01       5.069e-01           0.070          -0.031          -0.997       7.586e-02          0.0689
 124       6.275e+00      -1.279e+01       4.988e-01           0.018          -0.050          -0.999       7.350e-02          0.1529
 125       6.106e+00      -1.279e+01       4.988e-01          -0.019          -0.064          -0.998       6.705e-02          0.2623
 126       5.956e+00      -1.279e+01       5.046e-01          -0.062          -0.081          -0.995       5.681e-02          0.4050
 127       5.835e+00      -1.279e+01       5.163e-01          -0.141          -0.114          -0.983       4.355e-02          0.6130
 128       5.751e+00      -1.279e+01       5.348e-01          -0.319          -0.188          -0.929       2.868e-02          0.8037
 129       5.708e+00      -1.279e+01       5.631e-01          -0.787          -0.373          -0.491       1.806e-02         -0.5697
 130       5.708e+00      -1.278e+01       5.977e-01          -0.792          -0.329           0.514       1.816e-02         -4.6526
 131       5.751e+00      -1.278e+01       6.253e-01          -0.299          -0.094           0.950       2.835e-02         -4.3824
 132       5.835e+00      -1.278e+01       6.426e-01          -0.134          -0.021           0.991       4.341e-02         -2.0773
 133       5.956e+00      -1.278e+01       6.542e-01          -0.065           0.008           0.998       5.672e-02         -1.2960
 134       6.106e+00      -1.278e+01       6.609e-01          -0.027           0.024           0.999       6.695e-02         -0.9119
 135       6.275e+00      -1.278e+01       6.635e-01          -0.004           0.032           0.999       7.338e-02         -0.6922
 136       6.456e+00      -1.278e+01       6.625e-01           0.015           0.039           0.999       7.559e-02         -0.5604
 137       6.636e+00      -1.278e+01       6.579e-01           0.037           0.046           0.998       7.344e-02         -0.4794
 138       6.806e+00      -1.278e+01       6.490e-01           0.070           0.056           0.996       6.710e-02         -0.4318
 139       6.956e+00      -1.278e+01       6.348e-01           0.124           0.071           0.990       5.706e-02         -0.3861
 140       7.076e+00      -1.278e+01       6.157e-01           0.198           0.090           0.976       4.389e-02         -0.2825
 141       7.161e+00      -1.278e+01       5.959e-01           0.272           0.108           0.956       2.795e-02         -0.0639
 142       7.204e+00      -1.279e+01       5.829e-01           0.331           0.121           0.936       9.700e-03          0.1126
Strip 6
 143       7.095e+00      -1.233e+01       5.616e-01          -0.279          -0.110          -0.954       1.223e-02          0.3607
 144       7.049e+00      -1.233e+01       5.717e-01          -0.190          -0.090          -0.978       3.512e-02          0.4120
 145       6.959e+00      -1.233e+01       5.797e-01          -0.023          -0.049          -0.999       5.516e-02          0.4452
 146       6.831e+00      -1.233e+01       5.726e-01           0.114          -0.012          -0.993       7.315e-02          0.3960
 147       6.673e+00      -1.233e+01       5.452e-01           0.215           0.017          -0.976       8.815e-02          0.2892
 148       6.492e+00      -1.233e+01       5.073e-01           0.196           0.011          -0.980       9.626e-02          0.1394
 149       6.300e+00      -1.233e+01       4.816e-01           0.070          -0.031          -0.997       9.737e-02          0.1052
 150       6.109e+00      -1.233e+01       4.730e-01           0.018          -0.050          -0.999       9.434e-02          0.1898
 151       5.928e+00      -1.233e+01       4.730e-01          -0.019          -0.064          -0.998       8.607e-02          0.2983
 152       5.769e+00      -1.233e+01       4.792e-01          -0.062          -0.081          -0.995       7.293e-02          0.4389
 153       5.641e+00      -1.233e+01       4.916e-01          -0.141          -0.114          -0.983       5.592e-02          0.6418
 154       5.551e+00      -1.233e+01       5.113e-01          -0.319          -0.188          -0.929       3.683e-02          0.8046
 155       5.505e+00      -1.233e+01       5.413e-01          -0.787          -0.373          -0.492       2.320e-02         -0.6957
 156       5.505e+00      -1.233e+01       5.780e-01          -0.792          -0.330           0.513       2.330e-02         -4.9240
 157       5.551e+00      -1.233e+01       6.074e-01          -0.299          -0.094           0.950       3.638e-02         -4.5761
 158       5.641e+00      -1.233e+01       6.258e-01          -0.135          -0.021           0.991       5.571e-02         -2.1700
 159       5.769e+00      -1.233e+01       6.381e-01          -0.065           0.008           0.998       7.280e-02         -1.3617
 160       5.928e+00      -1.233e+01       6.452e-01          -0.027           0.024           0.999       8.594e-02         -0.9663
 161       6.109e+00      -1.233e+01       6.480e-01          -0.004           0.032           0.999       9.420e-02         -0.7396
 162       6.300e+00      -1.233e+01       6.469e-01           0.015           0.039           0.999       9.703e-02         -0.6014
 163       6.492e+00      -1.233e+01       6.420e-01           0.037           0.046           0.998       9.427e-02         -0.5129
 164       6.673e+00      -1.233e+01       6.325e-01           0.070           0.056           0.996       8.615e-02         -0.4564
 165       6.831e+00      -1.233e+01       6.175e-01           0.124           0.071           0.990       7.325e-02         -0.4009
 166       6.959e+00      -1.233e+01       5.972e-01           0.198           0.090           0.976       5.635e-02         -0.2882
 167       7.049e+00      -1.233e+01       5.762e-01           0.272           0.108           0.956       3.588e-02         -0.0619
 168       7.095e+00      -1.233e+01       5.623e-01           0.331           0.121           0.936       1.246e-02          0.1183
Strip 7
 169       6.966e+00      -1.179e+01       5.372e-01          -0.279          -0.110          -0.954       1.524e-02          0.3691
 170       6.917e+00      -1.179e+01       5.480e-01          -0.190          -0.090          -0.978       4.379e-02          0.4220
 171       6.821e+00      -1.179e+01       5.565e-01          -0.023          -0.049          -0.999       6.877e-02          0.4571
 172       6.684e+00      -1.179e+01       5.490e-01           0.114          -0.012          -0.993       9.118e-02          0.4096
 173       6.514e+00      -1.179e+01       5.197e-01           0.215           0.017          -0.976       1.099e-01          0.3049
 174       6.321e+00      -1.179e+01       4.791e-01           0.196           0.011          -0.980       1.200e-01          0.1580
 175       6.116e+00      -1.179e+01       4.516e-01           0.070          -0.031          -0.997       1.214e-01          0.1257
 176       5.911e+00      -1.179e+01       4.424e-01           0.018          -0.050          -0.999       1.176e-01          0.2103
 177       5.718e+00      -1.179e+01       4.424e-01          -0.019          -0.064          -0.998       1.073e-01          0.3179
 178       5.548e+00      -1.179e+01       4.491e-01          -0.062          -0.081          -0.995       9.092e-02          0.4569
 179       5.411e+00      -1.179e+01       4.623e-01          -0.141          -0.113          -0.983       6.972e-02          0.6567
 180       5.315e+00      -1.179e+01       4.834e-01          -0.318          -0.188          -0.929       4.594e-02          0.8042
 181       5.265e+00      -1.179e+01       5.155e-01          -0.786          -0.373          -0.493       2.894e-02         -0.7613
 182       5.265e+00      -1.179e+01       5.548e-01          -0.793          -0.330           0.512       2.903e-02         -5.0703
 183       5.315e+00      -1.179e+01       5.862e-01          -0.299          -0.094           0.950       4.533e-02         -4.6813
 184       5.411e+00      -1.179e+01       6.059e-01          -0.135          -0.021           0.991       6.943e-02         -2.2201
 185       5.548e+00      -1.179e+01       6.190e-01          -0.065           0.008           0.998       9.075e-02         -1.3975
 186       5.718e+00      -1.179e+01       6.266e-01          -0.027           0.024           0.999       1.071e-01         -0.9962
 187       5.911e+00      -1.179e+01       6.296e-01          -0.004           0.032           0.999       1.174e-01         -0.7663
 188       6.116e+00      -1.179e+01       6.285e-01           0.015           0.039           0.999       1.210e-01         -0.6252
 189       6.321e+00      -1.179e+01       6.232e-01           0.037           0.046           0.998       1.175e-01         -0.5331
 190       6.514e+00      -1.179e+01       6.131e-01           0.070           0.056           0.996       1.074e-01         -0.4719
 191       6.684e+00      -1.179e+01       5.970e-01           0.124           0.071           0.990       9.133e-02         -0.4112
 192       6.821e+00      -1.179e+01       5.753e-01           0.198           0.090           0.976       7.026e-02         -0.2933
 193       6.917e+00      -1.179e+01       5.528e-01           0.272           0.108           0.956       4.474e-02         -0.0624
 194       6.966e+00      -1.179e+01       5.380e-01           0.331           0.121           0.936       1.553e-02          0.1199
Strip 8
 195       6.818e+00      -1.117e+01       5.092e-01          -0.279          -0.110          -0.954       1.860e-02          0.3738
 196       6.765e+00      -1.117e+01       5.208e-01          -0.190          -0.090          -0.978       5.344e-02          0.4275
 197       6.662e+00      -1.117e+01       5.300e-01          -0.023          -0.049          -0.999       8.390e-02          0.4637
 198       6.515e+00      -1.117e+01       5.218e-01           0.114          -0.012          -0.993       1.112e-01          0.4171
 199       6.332e+00      -1.117e+01       4.903e-01           0.215           0.017          -0.976       1.340e-01          0.3134
 200       6.124e+00      -1.117e+01       4.467e-01           0.196           0.011          -0.980       1.463e-01          0.1679
 201       5.904e+00      -1.117e+01       4.171e-01           0.070          -0.031          -0.997       1.481e-01          0.1362
 202       5.684e+00      -1.117e+01       4.073e-01           0.018          -0.050          -0.999       1.435e-01          0.2204
 203       5.476e+00      -1.117e+01       4.073e-01          -0.019          -0.064          -0.998       1.309e-01          0.3272
 204       5.293e+00      -1.117e+01       4.144e-01          -0.062          -0.081          -0.995       1.109e-01          0.4649
 205       5.146e+00      -1.117e+01       4.287e-01          -0.141          -0.113          -0.983       8.509e-02          0.6629
 206       5.043e+00      -1.117e+01       4.513e-01          -0.318          -0.187          -0.929       5.608e-02          0.8050
 207       4.990e+00      -1.117e+01       4.858e-01          -0.786          -0.372          -0.494       3.533e-02         -0.7776
 208       4.990e+00      -1.117e+01       5.281e-01          -0.793          -0.330           0.512       3.540e-02         -5.1180
 209       5.043e+00      -1.117e+01       5.619e-01          -0.299          -0.094           0.950       5.528e-02         -4.7187
 210       5.146e+00      -1.117e+01       5.830e-01          -0.135          -0.021           0.991       8.470e-02         -2.2388
 211       5.293e+00      -1.117e+01       5.971e-01          -0.065           0.008           0.998       1.107e-01         -1.4121
 212       5.476e+00      -1.117e+01       6.053e-01          -0.027           0.024           0.999       1.307e-01         -1.0094
 213       5.684e+00      -1.117e+01       6.085e-01          -0.004           0.032           0.999       1.433e-01         -0.7788
 214       5.904e+00      -1.117e+01       6.073e-01           0.015           0.039           0.999       1.476e-01         -0.6368
 215       6.124e+00      -1.117e+01       6.016e-01           0.037           0.046           0.998       1.434e-01         -0.5433
 216       6.332e+00      -1.117e+01       5.908e-01           0.070           0.056           0.996       1.310e-01         -0.4800
 217       6.515e+00      -1.117e+01       5.734e-01           0.124           0.071           0.990       1.114e-01         -0.4166
 218       6.662e+00      -1.117e+01       5.501e-01           0.198           0.090           0.976       8.574e-02         -0.2962
 219       6.765e+00      -1.117e+01       5.260e-01           0.272           0.108           0.956       5.460e-02         -0.0629
 220       6.818e+00      -1.117e+01       5.100e-01           0.330           0.121           0.936       1.895e-02          0.1206
Strip 9
 221       6.652e+00      -1.047e+01       4.777e-01          -0.279          -0.110          -0.954       2.231e-02          0.3765
 222       6.594e+00      -1.047e+01       4.902e-01          -0.190          -0.089          -0.978       6.409e-02          0.4306
 223       6.483e+00      -1.047e+01       5.001e-01          -0.023          -0.049          -0.999       1.006e-01          0.4674
 224       6.325e+00      -1.047e+01       4.913e-01           0.114          -0.012          -0.993       1.334e-01          0.4212
 225       6.128e+00      -1.047e+01       4.574e-01           0.216           0.017          -0.976       1.607e-01          0.3178
 226       5.904e+00      -1.047e+01       4.104e-01           0.196           0.011          -0.980       1.755e-01          0.1722
 227       5.666e+00      -1.047e+01       3.784e-01           0.070          -0.031          -0.997       1.776e-01          0.1403
 228       5.429e+00      -1.048e+01       3.678e-01           0.018          -0.050          -0.999       1.721e-01          0.2239
 229       5.205e+00      -1.048e+01       3.678e-01          -0.019          -0.064          -0.998       1.570e-01          0.3297
 230       5.008e+00      -1.047e+01       3.755e-01          -0.062          -0.081          -0.995       1.331e-01          0.4662
 231       4.849e+00      -1.047e+01       3.909e-01          -0.141          -0.113          -0.983       1.021e-01          0.6633
 232       4.738e+00      -1.047e+01       4.153e-01          -0.318          -0.187          -0.929       6.728e-02          0.8075
 233       4.681e+00      -1.047e+01       4.525e-01          -0.785          -0.372          -0.495       4.240e-02         -0.7564
 234       4.681e+00      -1.047e+01       4.981e-01          -0.794          -0.330           0.511       4.243e-02         -5.0910
 235       4.738e+00      -1.047e+01       5.345e-01          -0.299          -0.094           0.950       6.626e-02         -4.7052
 236       4.849e+00      -1.047e+01       5.573e-01          -0.135          -0.021           0.991       1.016e-01         -2.2346
 237       5.008e+00      -1.047e+01       5.725e-01          -0.065           0.008           0.998       1.328e-01         -1.4118
 238       5.205e+00      -1.047e+01       5.814e-01          -0.027           0.024           0.999       1.567e-01         -1.0113
 239       5.429e+00      -1.047e+01       5.848e-01          -0.004           0.032           0.999       1.718e-01         -0.7818
 240       5.666e+00      -1.047e+01       5.835e-01           0.015           0.039           0.999       1.770e-01         -0.6405
 241       5.904e+00      -1.047e+01       5.774e-01           0.037           0.046           0.998       1.720e-01         -0.5469
 242       6.128e+00      -1.047e+01       5.657e-01           0.070           0.056           0.996       1.572e-01         -0.4829
 243       6.325e+00      -1.047e+01       5.469e-01           0.124           0.071           0.990       1.337e-01         -0.4185
 244       6.483e+00      -1.047e+01       5.218e-01           0.198           0.090           0.976       1.028e-01         -0.2971
 245       6.594e+00      -1.047e+01       4.958e-01           0.272           0.108           0.956       6.549e-02         -0.0629
 246       6.652e+00      -1.047e+01       4.786e-01           0.330           0.121           0.936       2.274e-02          0.1209
Strip 10
 247       6.468e+00      -9.704e+00       4.430e-01          -0.279          -0.110          -0.954       2.637e-02          0.3780
 248       6.406e+00      -9.704e+00       4.565e-01          -0.190          -0.089          -0.978       7.574e-02          0.4323
 249       6.286e+00      -9.704e+00       4.672e-01          -0.023          -0.049          -0.999       1.189e-01          0.4695
 250       6.115e+00      -9.704e+00       4.577e-01           0.114          -0.012          -0.993       1.576e-01          0.4233
 251       5.902e+00      -9.705e+00       4.210e-01           0.216           0.017          -0.976       1.898e-01          0.3196
 252       5.660e+00      -9.706e+00       3.702e-01           0.196           0.011          -0.980       2.073e-01          0.1732
 253       5.404e+00      -9.706e+00       3.358e-01           0.070          -0.031          -0.997       2.098e-01          0.1403
 254       5.147e+00      -9.707e+00       3.243e-01           0.018          -0.050          -0.999       2.033e-01          0.2230
 255       4.906e+00      -9.707e+00       3.243e-01          -0.019          -0.064          -0.998       1.855e-01          0.3277
 256       4.693e+00      -9.707e+00       3.326e-01          -0.062          -0.081          -0.995       1.572e-01          0.4629
 257       4.521e+00      -9.706e+00       3.492e-01          -0.141          -0.113          -0.983       1.206e-01          0.6593
 258       4.401e+00      -9.706e+00       3.756e-01          -0.318          -0.187          -0.929       7.953e-02          0.8112
 259       4.339e+00      -9.705e+00       4.158e-01          -0.785          -0.372          -0.496       5.012e-02         -0.7076
 260       4.339e+00      -9.704e+00       4.650e-01          -0.794          -0.331           0.510       5.010e-02         -5.0076
 261       4.401e+00      -9.703e+00       5.044e-01          -0.299          -0.094           0.949       7.826e-02         -4.6535
 262       4.521e+00      -9.703e+00       5.290e-01          -0.135          -0.021           0.991       1.200e-01         -2.2140
 263       4.693e+00      -9.702e+00       5.454e-01          -0.065           0.008           0.998       1.568e-01         -1.4009
 264       4.906e+00      -9.702e+00       5.550e-01          -0.027           0.024           0.999       1.852e-01         -1.0051
 265       5.147e+00      -9.702e+00       5.586e-01          -0.004           0.032           0.999       2.030e-01         -0.7785
 266       5.404e+00      -9.702e+00       5.573e-01           0.015           0.039           0.999       2.091e-01         -0.6387
 267       5.660e+00      -9.702e+00       5.507e-01           0.037           0.046           0.998       2.032e-01         -0.5460
 268       5.902e+00      -9.703e+00       5.380e-01           0.070           0.056           0.996       1.857e-01         -0.4823
 269       6.115e+00      -9.703e+00       5.178e-01           0.124           0.071           0.990       1.579e-01         -0.4179
 270       6.286e+00      -9.703e+00       4.906e-01           0.198           0.090           0.976       1.215e-01         -0.2965
 271       6.406e+00      -9.704e+00       4.625e-01           0.272           0.108           0.956       7.740e-02         -0.0625
 272       6.468e+00      -9.704e+00       4.439e-01           0.330           0.121           0.936       2.687e-02          0.1212
Strip 11
 273       6.269e+00      -8.870e+00       4.053e-01          -0.279          -0.110          -0.954       3.075e-02          0.3789
 274       6.202e+00      -8.870e+00       4.199e-01          -0.190          -0.089          -0.978       8.832e-02          0.4333
 275       6.072e+00      -8.869e+00       4.314e-01          -0.023          -0.049          -0.999       1.386e-01          0.4706
 276       5.887e+00      -8.870e+00       4.212e-01           0.114          -0.012          -0.993       1.837e-01          0.4242
 277       5.657e+00      -8.870e+00       3.816e-01           0.216           0.017          -0.976       2.213e-01          0.3197
 278       5.396e+00      -8.871e+00       3.267e-01           0.196           0.011          -0.980       2.416e-01          0.1719
 279       5.119e+00      -8.872e+00       2.894e-01           0.070          -0.031          -0.997       2.446e-01          0.1375
 280       4.842e+00      -8.872e+00       2.771e-01           0.018          -0.050          -0.999       2.370e-01          0.2191
 281       4.581e+00      -8.872e+00       2.770e-01          -0.019          -0.064          -0.998       2.163e-01          0.3224
 282       4.351e+00      -8.872e+00       2.860e-01          -0.062          -0.081          -0.995       1.833e-01          0.4562
 283       4.166e+00      -8.872e+00       3.040e-01          -0.141          -0.113          -0.983       1.406e-01          0.6522
 284       4.036e+00      -8.871e+00       3.324e-01          -0.318          -0.187          -0.929       9.276e-02          0.8154
 285       3.969e+00      -8.870e+00       3.759e-01          -0.784          -0.372          -0.497       5.847e-02         -0.6383
 286       3.969e+00      -8.869e+00       4.291e-01          -0.795          -0.331           0.509       5.838e-02         -4.8811
 287       4.036e+00      -8.869e+00       4.716e-01          -0.300          -0.094           0.949       9.122e-02         -4.5721
 288       4.166e+00      -8.868e+00       4.982e-01          -0.135          -0.021           0.991       1.398e-01         -2.1802
 289       4.351e+00      -8.868e+00       5.160e-01          -0.065           0.008           0.998       1.829e-01         -1.3822
 290       4.581e+00      -8.868e+00       5.263e-01          -0.027           0.024           0.999       2.159e-01         -0.9933
 291       4.842e+00      -8.868e+00       5.303e-01          -0.004           0.032           0.999       2.367e-01         -0.7706
 292       5.119e+00      -8.868e+00       5.287e-01           0.015           0.039           0.999       2.438e-01         -0.6332
 293       5.396e+00      -8.868e+00       5.216e-01           0.037           0.046           0.998       2.369e-01         -0.5421
 294       5.657e+00      -8.868e+00       5.079e-01           0.070           0.056           0.996       2.165e-01         -0.4793
 295       5.887e+00      -8.869e+00       4.861e-01           0.124           0.071           0.990       1.842e-01         -0.4157
 296       6.072e+00      -8.869e+00       4.567e-01           0.198           0.090           0.976       1.417e-01         -0.2950
 297       6.202e+00      -8.869e+00       4.264e-01           0.272           0.108           0.956       9.026e-02         -0.0617
 298       6.269e+00      -8.870e+00       4.063e-01           0.330           0.121           0.936       3.134e-02          0.1214
Strip 12
 299       6.055e+00      -7.975e+00       3.648e-01          -0.279          -0.110          -0.954       3.542e-02          0.3794
 300       5.983e+00      -7.975e+00       3.806e-01          -0.190          -0.089          -0.978       1.017e-01          0.4339
 301       5.843e+00      -7.974e+00       3.931e-01          -0.023          -0.049          -0.999       1.596e-01          0.4711
 302       5.643e+00      -7.974e+00       3.820e-01           0.114          -0.012          -0.993       2.116e-01          0.4243
 303       5.395e+00      -7.975e+00       3.392e-01           0.216           0.017          -0.976       2.548e-01          0.3189
 304       5.113e+00      -7.976e+00       2.799e-01           0.196           0.011          -0.980       2.782e-01          0.1689
 305       4.813e+00      -7.976e+00       2.397e-01           0.070          -0.031          -0.997       2.816e-01          0.1325
 306       4.514e+00      -7.977e+00       2.263e-01           0.018          -0.050          -0.999       2.730e-01          0.2128
 307       4.232e+00      -7.977e+00       2.263e-01          -0.019          -0.064          -0.998       2.491e-01          0.3146
 308       3.984e+00      -7.977e+00       2.360e-01          -0.062          -0.081          -0.995       2.112e-01          0.4466
 309       3.784e+00      -7.976e+00       2.554e-01          -0.141          -0.113          -0.984       1.620e-01          0.6422
 310       3.644e+00      -7.976e+00       2.861e-01          -0.318          -0.187          -0.929       1.069e-01          0.8195
 311       3.571e+00      -7.975e+00       3.331e-01          -0.784          -0.372          -0.497       6.737e-02         -0.5534
 312       3.571e+00      -7.974e+00       3.905e-01          -0.795          -0.331           0.508       6.721e-02         -4.7198
 313       3.644e+00      -7.974e+00       4.364e-01          -0.300          -0.094           0.949       1.050e-01         -4.4667
 314       3.784e+00      -7.973e+00       4.652e-01          -0.135          -0.021           0.991       1.610e-01         -2.1363
 315       3.984e+00      -7.973e+00       4.844e-01          -0.065           0.008           0.998       2.106e-01         -1.3571
 316       4.232e+00      -7.973e+00       4.955e-01          -0.027           0.024           0.999       2.487e-01         -0.9769
 317       4.514e+00      -7.973e+00       4.998e-01          -0.004           0.032           0.999       2.726e-01         -0.7591
 318       4.813e+00      -7.973e+00       4.982e-01           0.015           0.039           0.999       2.808e-01         -0.6250
 319       5.113e+00      -7.973e+00       4.905e-01           0.037           0.046           0.998       2.729e-01         -0.5360
 320       5.395e+00      -7.973e+00       4.757e-01           0.070           0.056           0.996       2.494e-01         -0.4746
 321       5.643e+00      -7.974e+00       4.521e-01           0.124           0.071           0.990       2.121e-01         -0.4121
 322       5.843e+00      -7.974e+00       4.204e-01           0.198           0.090           0.976       1.632e-01         -0.2927
 323       5.983e+00      -7.974e+00       3.877e-01           0.272           0.108           0.956       1.040e-01         -0.0608
 324       6.055e+00      -7.975e+00       3.659e-01           0.330           0.121           0.936       3.610e-02          0.1216
Strip 13
 325       5.828e+00      -7.025e+00       3.219e-01          -0.279          -0.110          -0.954       4.033e-02          0.3798
 326       5.750e+00      -7.025e+00       3.390e-01          -0.190          -0.089          -0.978       1.158e-01          0.4342
 327       5.599e+00      -7.025e+00       3.524e-01          -0.023          -0.049          -0.999       1.817e-01          0.4712
 328       5.383e+00      -7.025e+00       3.404e-01           0.114          -0.012          -0.993       2.408e-01          0.4240
 329       5.116e+00      -7.025e+00       2.943e-01           0.216           0.017          -0.976       2.900e-01          0.3172
 330       4.812e+00      -7.026e+00       2.304e-01           0.197           0.011          -0.980       3.167e-01          0.1647
 331       4.489e+00      -7.027e+00       1.870e-01           0.070          -0.031          -0.997       3.206e-01          0.1259
 332       4.166e+00      -7.027e+00       1.726e-01           0.018          -0.050          -0.999       3.107e-01          0.2046
 333       3.862e+00      -7.027e+00       1.725e-01          -0.019          -0.064          -0.998       2.836e-01          0.3046
 334       3.594e+00      -7.027e+00       1.830e-01          -0.062          -0.081          -0.995       2.404e-01          0.4346
 335       3.379e+00      -7.026e+00       2.039e-01          -0.141          -0.113          -0.984       1.844e-01          0.6295
 336       3.228e+00      -7.026e+00       2.371e-01          -0.318          -0.187          -0.930       1.217e-01          0.8227
 337       3.150e+00      -7.026e+00       2.877e-01          -0.783          -0.372          -0.498       7.673e-02         -0.4562
 338       3.150e+00      -7.025e+00       3.496e-01          -0.795          -0.331           0.508       7.647e-02         -4.5284
 339       3.228e+00      -7.024e+00       3.992e-01          -0.300          -0.094           0.949       1.195e-01         -4.3403
 340       3.379e+00      -7.024e+00       4.302e-01          -0.135          -0.021           0.991       1.833e-01         -2.0834
 341       3.594e+00      -7.024e+00       4.509e-01          -0.065           0.008           0.998       2.397e-01         -1.3265
 342       3.862e+00      -7.024e+00       4.628e-01          -0.027           0.024           0.999       2.830e-01         -0.9567
 343       4.166e+00      -7.023e+00       4.675e-01          -0.004           0.032           0.999       3.103e-01         -0.7448
 344       4.489e+00      -7.024e+00       4.657e-01           0.015           0.039           0.999       3.197e-01         -0.6145
 345       4.812e+00      -7.024e+00       4.575e-01           0.037           0.046           0.998       3.106e-01         -0.5281
 346       5.116e+00      -7.024e+00       4.415e-01           0.070           0.056           0.996       2.839e-01         -0.4685
 347       5.383e+00      -7.024e+00       4.161e-01           0.124           0.071           0.990       2.415e-01         -0.4077
 348       5.599e+00      -7.024e+00       3.819e-01           0.198           0.090           0.976       1.858e-01         -0.2899
 349       5.750e+00      -7.025e+00       3.465e-01           0.272           0.108           0.956       1.184e-01         -0.0596
 350       5.828e+00      -7.025e+00       3.231e-01           0.330           0.121           0.936       4.110e-02          0.1217
Strip 14
 351       5.590e+00      -6.028e+00       2.768e-01          -0.279          -0.110          -0.954       4.540e-02          0.3801
 352       5.506e+00      -6.027e+00       2.952e-01          -0.190          -0.089          -0.978       1.304e-01          0.4343
 353       5.343e+00      -6.027e+00       3.096e-01          -0.023          -0.049          -0.999       2.046e-01          0.4711
 354       5.111e+00      -6.027e+00       2.968e-01           0.114          -0.012          -0.993       2.711e-01          0.4233
 355       4.823e+00      -6.028e+00       2.471e-01           0.216           0.017          -0.976       3.264e-01          0.3150
 356       4.496e+00      -6.028e+00       1.783e-01           0.197           0.011          -0.980       3.564e-01          0.1594
 357       4.148e+00      -6.029e+00       1.316e-01           0.070          -0.031          -0.997       3.609e-01          0.1178
 358       3.801e+00      -6.029e+00       1.161e-01           0.018          -0.050          -0.999       3.498e-01          0.1946
 359       3.473e+00      -6.029e+00       1.160e-01          -0.019          -0.064          -0.998       3.192e-01          0.2925
 360       3.185e+00      -6.029e+00       1.273e-01          -0.062          -0.081          -0.995       2.706e-01          0.4201
 361       2.953e+00      -6.029e+00       1.498e-01          -0.141          -0.113          -0.984       2.076e-01          0.6140
 362       2.791e+00      -6.028e+00       1.855e-01          -0.318          -0.187          -0.930       1.370e-01          0.8243
 363       2.707e+00      -6.028e+00       2.400e-01          -0.783          -0.372          -0.499       8.641e-02         -0.3480
 364       2.707e+00      -6.027e+00       3.067e-01          -0.796          -0.332           0.507       8.605e-02         -4.3088
 365       2.791e+00      -6.027e+00       3.600e-01          -0.300          -0.094           0.949       1.345e-01         -4.1936
 366       2.953e+00      -6.027e+00       3.934e-01          -0.135          -0.021           0.991       2.063e-01         -2.0216
 367       3.185e+00      -6.026e+00       4.156e-01          -0.065           0.008           0.998       2.698e-01         -1.2907
 368       3.473e+00      -6.026e+00       4.285e-01          -0.027           0.024           0.999       3.186e-01         -0.9330
 369       3.801e+00      -6.026e+00       4.336e-01          -0.004           0.032           0.999       3.493e-01         -0.7280
 370       4.148e+00      -6.026e+00       4.317e-01           0.015           0.039           0.999       3.599e-01         -0.6021
 371       4.496e+00      -6.026e+00       4.228e-01           0.037           0.046           0.998       3.497e-01         -0.5187
 372       4.823e+00      -6.026e+00       4.056e-01           0.070           0.056           0.996       3.196e-01         -0.4614
 373       5.111e+00      -6.027e+00       3.782e-01           0.124           0.071           0.990       2.719e-01         -0.4024
 374       5.343e+00      -6.027e+00       3.414e-01           0.198           0.090           0.976       2.092e-01         -0.2866
 375       5.506e+00      -6.027e+00       3.033e-01           0.272           0.108           0.956       1.333e-01         -0.0584
 376       5.590e+00      -6.028e+00       2.781e-01           0.330           0.121           0.936       4.627e-02          0.1218
Strip 15
 377       5.342e+00      -4.989e+00       2.299e-01          -0.279          -0.110          -0.954       5.057e-02          0.3801
 378       5.252e+00      -4.989e+00       2.496e-01          -0.190          -0.089          -0.978       1.452e-01          0.4343
 379       5.077e+00      -4.989e+00       2.651e-01          -0.023          -0.049          -0.999       2.278e-01          0.4708
 380       4.828e+00      -4.989e+00       2.513e-01           0.114          -0.012          -0.993       3.018e-01          0.4223
 381       4.518e+00      -4.989e+00       1.980e-01           0.216           0.017          -0.976       3.634e-01          0.3122
 382       4.167e+00      -4.990e+00       1.241e-01           0.197           0.011          -0.980       3.968e-01          0.1531
 383       3.794e+00      -4.990e+00       7.386e-02           0.070          -0.031          -0.997       4.018e-01          0.1081
 384       3.420e+00      -4.990e+00       5.722e-02           0.018          -0.050          -0.999       3.895e-01          0.1828
 385       3.069e+00      -4.990e+00       5.717e-02          -0.019          -0.064          -0.998       3.555e-01          0.2782
 386       2.760e+00      -4.990e+00       6.927e-02          -0.062          -0.081          -0.995       3.014e-01          0.4029
 387       2.510e+00      -4.990e+00       9.349e-02          -0.141          -0.113          -0.984       2.313e-01          0.5952
 388       2.336e+00      -4.989e+00       1.318e-01          -0.317          -0.187          -0.930       1.526e-01          0.8235
 389       2.246e+00      -4.989e+00       1.903e-01          -0.783          -0.371          -0.499       9.626e-02         -0.2295
 390       2.246e+00      -4.989e+00       2.619e-01          -0.796          -0.332           0.506       9.579e-02         -4.0590
 391       2.336e+00      -4.988e+00       3.192e-01          -0.300          -0.094           0.949       1.497e-01         -4.0247
 392       2.510e+00      -4.988e+00       3.551e-01          -0.135          -0.021           0.991       2.297e-01         -1.9506
 393       2.760e+00      -4.988e+00       3.790e-01          -0.065           0.008           0.998       3.004e-01         -1.2495
 394       3.069e+00      -4.988e+00       3.928e-01          -0.027           0.024           0.999       3.548e-01         -0.9058
 395       3.420e+00      -4.988e+00       3.982e-01          -0.004           0.032           0.999       3.890e-01         -0.7087
 396       3.794e+00      -4.988e+00       3.962e-01           0.015           0.039           0.999       4.007e-01         -0.5880
 397       4.167e+00      -4.988e+00       3.866e-01           0.037           0.046           0.998       3.894e-01         -0.5082
 398       4.518e+00      -4.988e+00       3.682e-01           0.070           0.056           0.996       3.559e-01         -0.4534
 399       4.828e+00      -4.988e+00       3.387e-01           0.124           0.071           0.990       3.028e-01         -0.3966
 400       5.077e+00      -4.988e+00       2.992e-01           0.198           0.090           0.976       2.330e-01         -0.2830
 401       5.252e+00      -4.989e+00       2.584e-01           0.272           0.108           0.956       1.484e-01         -0.0572
 402       5.342e+00      -4.989e+00       2.313e-01           0.330           0.121           0.936       5.153e-02          0.1214
Strip 16
 403       5.085e+00      -3.916e+00       1.814e-01          -0.278          -0.110          -0.954       5.573e-02          0.3801
 404       4.989e+00      -3.916e+00       2.025e-01          -0.190          -0.089          -0.978       1.600e-01          0.4342
 405       4.802e+00      -3.916e+00       2.192e-01          -0.023          -0.049          -0.999       2.510e-01          0.4704
 406       4.535e+00      -3.916e+00       2.043e-01           0.114          -0.012          -0.993       3.326e-01          0.4211
 407       4.203e+00      -3.916e+00       1.472e-01           0.216           0.017          -0.976       4.004e-01          0.3089
 408       3.827e+00      -3.917e+00       6.804e-02           0.197           0.011          -0.980       4.373e-01          0.1457
 409       3.427e+00      -3.917e+00       1.428e-02           0.070          -0.031          -0.997       4.428e-01          0.0970
 410       3.028e+00      -3.917e+00      -3.548e-03           0.018          -0.050          -0.999       4.292e-01          0.1691
 411       2.651e+00      -3.917e+00      -3.597e-03          -0.019          -0.064          -0.998       3.917e-01          0.2616
 412       2.320e+00      -3.917e+00       9.360e-03          -0.062          -0.081          -0.995       3.321e-01          0.3825
 413       2.053e+00      -3.917e+00       3.531e-02          -0.141          -0.113          -0.984       2.549e-01          0.5723
 414       1.866e+00      -3.917e+00       7.632e-02          -0.317          -0.187          -0.930       1.682e-01          0.8190
 415       1.769e+00      -3.916e+00       1.390e-01          -0.783          -0.371          -0.500       1.061e-01         -0.0993
 416       1.769e+00      -3.916e+00       2.157e-01          -0.796          -0.332           0.506       1.055e-01         -3.7732
 417       1.866e+00      -3.915e+00       2.771e-01          -0.300          -0.094           0.949       1.649e-01         -3.8287
 418       2.053e+00      -3.915e+00       3.155e-01          -0.135          -0.021           0.991       2.531e-01         -1.8679
 419       2.320e+00      -3.915e+00       3.411e-01          -0.065           0.008           0.998       3.310e-01         -1.2018
 420       2.651e+00      -3.915e+00       3.560e-01          -0.027           0.024           0.999       3.910e-01         -0.8746
 421       3.028e+00      -3.915e+00       3.617e-01          -0.004           0.032           0.999       4.286e-01         -0.6871
 422       3.427e+00      -3.915e+00       3.595e-01           0.015           0.039           0.999       4.416e-01         -0.5725
 423       3.827e+00      -3.915e+00       3.493e-01           0.037           0.046           0.998       4.291e-01         -0.4969
 424       4.203e+00      -3.915e+00       3.295e-01           0.070           0.056           0.996       3.922e-01         -0.4451
 425       4.535e+00      -3.915e+00       2.980e-01           0.124           0.071           0.990       3.336e-01         -0.3907
 426       4.802e+00      -3.916e+00       2.557e-01           0.198           0.090           0.976       2.568e-01         -0.2795
 427       4.989e+00      -3.916e+00       2.119e-01           0.272           0.108           0.956       1.636e-01         -0.0562
 428       5.085e+00      -3.916e+00       1.829e-01           0.330           0.121           0.936       5.680e-02          0.1209
Strip 17
 429       4.823e+00      -2.816e+00       1.317e-01          -0.278          -0.110          -0.954       6.079e-02          0.3800
 430       4.720e+00      -2.816e+00       1.543e-01          -0.190          -0.089          -0.978       1.745e-01          0.4340
 431       4.520e+00      -2.816e+00       1.720e-01          -0.023          -0.049          -0.999       2.738e-01          0.4700
 432       4.235e+00      -2.816e+00       1.562e-01           0.114          -0.012          -0.993       3.627e-01          0.4198
 433       3.881e+00      -2.817e+00       9.519e-02           0.216           0.017          -0.976       4.366e-01          0.3052
 434       3.479e+00      -2.817e+00       1.063e-02           0.197           0.011          -0.980       4.768e-01          0.1373
 435       3.052e+00      -2.817e+00      -4.679e-02           0.070          -0.031          -0.997       4.829e-01          0.0842
 436       2.625e+00      -2.817e+00      -6.583e-02           0.018          -0.050          -0.999       4.681e-01          0.1534
 437       2.223e+00      -2.817e+00      -6.588e-02          -0.019          -0.064          -0.998       4.272e-01          0.2424
 438       1.869e+00      -2.817e+00      -5.204e-02          -0.062          -0.081          -0.995       3.622e-01          0.3585
 439       1.584e+00      -2.817e+00      -2.433e-02          -0.141          -0.113          -0.984       2.780e-01          0.5440
 440       1.384e+00      -2.817e+00       1.948e-02          -0.317          -0.187          -0.930       1.835e-01          0.8091
 441       1.281e+00      -2.817e+00       8.642e-02          -0.782          -0.371          -0.500       1.158e-01          0.0465
 442       1.281e+00      -2.816e+00       1.684e-01          -0.796          -0.332           0.505       1.150e-01         -3.4366
 443       1.384e+00      -2.816e+00       2.339e-01          -0.300          -0.094           0.949       1.799e-01         -3.5933
 444       1.584e+00      -2.816e+00       2.749e-01          -0.135          -0.021           0.991       2.760e-01         -1.7684
 445       1.869e+00      -2.816e+00       3.023e-01          -0.065           0.008           0.998       3.610e-01         -1.1451
 446       2.223e+00      -2.816e+00       3.182e-01          -0.027           0.024           0.999       4.264e-01         -0.8386
 447       2.625e+00      -2.816e+00       3.243e-01          -0.004           0.032           0.999       4.675e-01         -0.6633
 448       3.052e+00      -2.816e+00       3.220e-01           0.015           0.039           0.999       4.816e-01         -0.5566
 449       3.479e+00      -2.816e+00       3.110e-01           0.037           0.046           0.998       4.680e-01         -0.4862
 450       3.881e+00      -2.816e+00       2.899e-01           0.070           0.056           0.996       4.278e-01         -0.4376
 451       4.235e+00      -2.816e+00       2.563e-01           0.124           0.071           0.990       3.639e-01         -0.3857
 452       4.520e+00      -2.816e+00       2.110e-01           0.198           0.090           0.976       2.801e-01         -0.2769
 453       4.720e+00      -2.816e+00       1.643e-01           0.271           0.108           0.956       1.784e-01         -0.0560
 454       4.823e+00      -2.816e+00       1.333e-01           0.330           0.121           0.936       6.195e-02          0.1197
Strip 18
 455       4.555e+00      -1.698e+00       8.117e-02          -0.278          -0.110          -0.954       6.563e-02          0.3796
 456       4.446e+00      -1.698e+00       1.052e-01          -0.190          -0.089          -0.978       1.884e-01          0.4336
 457       4.233e+00      -1.697e+00       1.241e-01          -0.023          -0.049          -0.999       2.956e-01          0.4694
 458       3.929e+00      -1.698e+00       1.073e-01           0.114          -0.012          -0.993       3.915e-01          0.4180
 459       3.552e+00      -1.698e+00       4.226e-02           0.216           0.017          -0.976       4.714e-01          0.3005
 460       3.124e+00      -1.698e+00      -4.778e-02           0.197           0.011          -0.980       5.147e-01          0.1274
 461       2.670e+00      -1.698e+00      -1.089e-01           0.070          -0.031          -0.997       5.213e-01          0.0702
 462       2.215e+00      -1.698e+00      -1.292e-01           0.018          -0.050          -0.999       5.054e-01          0.1368
 463       1.787e+00      -1.698e+00      -1.293e-01          -0.019          -0.064          -0.998       4.612e-01          0.2216
 464       1.410e+00      -1.698e+00      -1.145e-01          -0.062          -0.081          -0.995       3.910e-01          0.3312
 465       1.107e+00      -1.698e+00      -8.501e-02          -0.141          -0.113          -0.984       3.001e-01          0.5093
 466       8.937e-01      -1.698e+00      -3.836e-02          -0.317          -0.187          -0.930       1.982e-01          0.7911
 467       7.842e-01      -1.698e+00       3.293e-02          -0.782          -0.371          -0.500       1.250e-01          0.2198
 468       7.842e-01      -1.697e+00       1.202e-01          -0.797          -0.332           0.505       1.242e-01         -3.0103
 469       8.937e-01      -1.697e+00       1.900e-01          -0.300          -0.094           0.949       1.941e-01         -3.2854
 470       1.107e+00      -1.697e+00       2.337e-01          -0.135          -0.021           0.991       2.979e-01         -1.6379
 471       1.410e+00      -1.697e+00       2.628e-01          -0.065           0.008           0.998       3.897e-01         -1.0732
 472       1.787e+00      -1.697e+00       2.797e-01          -0.027           0.024           0.999       4.603e-01         -0.7963
 473       2.215e+00      -1.697e+00       2.862e-01          -0.004           0.032           0.999       5.047e-01         -0.6387
 474       2.670e+00      -1.697e+00       2.838e-01           0.015           0.039           0.999       5.200e-01         -0.5432
 475       3.124e+00      -1.697e+00       2.721e-01           0.037           0.046           0.998       5.053e-01         -0.4798
 476       3.552e+00      -1.697e+00       2.496e-01           0.070           0.056           0.996       4.619e-01         -0.4351
 477       3.929e+00      -1.697e+00       2.138e-01           0.124           0.071           0.990       3.929e-01         -0.3851
 478       4.233e+00      -1.697e+00       1.656e-01           0.198           0.090           0.976       3.024e-01         -0.2775
 479       4.446e+00      -1.697e+00       1.159e-01           0.271           0.108           0.956       1.926e-01         -0.0579
 480       4.555e+00      -1.698e+00       8.286e-02           0.330           0.121           0.936       6.689e-02          0.1170
Strip 19
 481       4.285e+00      -5.671e-01       3.009e-02          -0.278          -0.110          -0.954       7.015e-02          0.3813
 482       4.169e+00      -5.671e-01       5.558e-02          -0.190          -0.089          -0.978       2.014e-01          0.4340
 483       3.943e+00      -5.671e-01       7.566e-02          -0.023          -0.049          -0.999       3.159e-01          0.4687
 484       3.621e+00      -5.671e-01       5.778e-02           0.114          -0.012          -0.993       4.185e-01          0.4129
 485       3.221e+00      -5.672e-01      -1.121e-02           0.216           0.017          -0.976       5.037e-01          0.2886
 486       2.766e+00      -5.672e-01      -1.068e-01           0.197           0.011          -0.980       5.501e-01          0.1108
 487       2.284e+00      -5.673e-01      -1.717e-01           0.070          -0.031          -0.997       5.571e-01          0.0564
 488       1.801e+00      -5.673e-01      -1.932e-01           0.018          -0.050          -0.999       5.401e-01          0.1278
 489       1.347e+00      -5.673e-01      -1.933e-01          -0.019          -0.064          -0.998       4.930e-01          0.2121
 490       9.467e-01      -5.673e-01      -1.776e-01          -0.062          -0.081          -0.995       4.180e-01          0.3148
 491       6.244e-01      -5.673e-01      -1.463e-01          -0.141          -0.113          -0.984       3.208e-01          0.4803
 492       3.985e-01      -5.672e-01      -9.680e-02          -0.317          -0.187          -0.930       2.118e-01          0.7657
 493       2.822e-01      -5.672e-01      -2.112e-02          -0.782          -0.371          -0.501       1.336e-01          0.4500
 494       2.822e-01      -5.671e-01       7.154e-02          -0.797          -0.332           0.505       1.327e-01         -2.3452
 495       3.985e-01      -5.671e-01       1.456e-01          -0.300          -0.094           0.949       2.075e-01         -2.7487
 496       6.244e-01      -5.670e-01       1.920e-01          -0.135          -0.021           0.991       3.184e-01         -1.4050
 497       9.467e-01      -5.670e-01       2.229e-01          -0.065           0.008           0.998       4.165e-01         -0.9630
 498       1.347e+00      -5.670e-01       2.408e-01          -0.027           0.024           0.999       4.920e-01         -0.7477
 499       1.801e+00      -5.670e-01       2.478e-01          -0.004           0.032           0.999       5.394e-01         -0.6199
 500       2.284e+00      -5.670e-01       2.452e-01           0.015           0.039           0.999       5.557e-01         -0.5423
 501       2.766e+00      -5.670e-01       2.328e-01           0.037           0.046           0.998       5.400e-01         -0.4902
 502       3.221e+00      -5.670e-01       2.089e-01           0.070           0.056           0.996       4.936e-01         -0.4509
 503       3.621e+00      -5.671e-01       1.709e-01           0.124           0.071           0.990       4.199e-01         -0.4013
 504       3.943e+00      -5.671e-01       1.198e-01           0.198           0.090           0.976       3.232e-01         -0.2910
 505       4.169e+00      -5.671e-01       6.691e-02           0.271           0.108           0.956       2.059e-01         -0.0674
 506       4.285e+00      -5.671e-01       3.188e-02           0.330           0.121           0.936       7.150e-02          0.1108
Strip 20
 507       4.285e+00       5.671e-01       3.009e-02          -0.278           0.110          -0.954       7.015e-02          0.3813
 508       4.169e+00       5.671e-01       5.558e-02          -0.190           0.089          -0.978       2.014e-01          0.4340
 509       3.943e+00       5.671e-01       7.566e-02          -0.023           0.049          -0.999       3.159e-01          0.4687
 510       3.621e+00       5.671e-01       5.778e-02           0.114           0.012          -0.993       4.185e-01          0.4129
 511       3.221e+00       5.672e-01      -1.121e-02           0.216          -0.017          -0.976       5.037e-01          0.2886
 512       2.766e+00       5.672e-01      -1.068e-01           0.197          -0.011          -0.980       5.501e-01          0.1108
 513       2.284e+00       5.673e-01      -1.717e-01           0.070           0.031          -0.997       5.571e-01          0.0564
 514       1.801e+00       5.673e-01      -1.932e-01           0.018           0.050          -0.999       5.401e-01          0.1278
 515       1.347e+00       5.673e-01      -1.933e-01          -0.019           0.064          -0.998       4.930e-01          0.2121
 516       9.467e-01       5.673e-01      -1.776e-01          -0.062           0.081          -0.995       4.180e-01          0.3148
 517       6.244e-01       5.673e-01      -1.463e-01          -0.141           0.113          -0.984       3.208e-01          0.4803
 518       3.985e-01       5.672e-01      -9.680e-02          -0.317           0.187          -0.930       2.118e-01          0.7657
 519       2.822e-01       5.672e-01      -2.112e-02          -0.782           0.371          -0.501       1.336e-01          0.4500
 520       2.822e-01       5.671e-01       7.154e-02          -0.797           0.332           0.505       1.327e-01         -2.3452
 521       3.985e-01       5.671e-01       1.456e-01          -0.300           0.094           0.949       2.075e-01         -2.7487
 522       6.244e-01       5.670e-01       1.920e-01          -0.135           0.021           0.991       3.184e-01         -1.4050
 523       9.467e-01       5.670e-01       2.229e-01          -0.065          -0.008           0.998       4.165e-01         -0.9630
 524       1.347e+00       5.670e-01       2.408e-01          -0.027          -0.024           0.999       4.920e-01         -0.7477
 525       1.801e+00       5.670e-01       2.478e-01          -0.004          -0.032           0.999       5.394e-01         -0.6199
 526       2.284e+00       5.670e-01       2.452e-01           0.015          -0.039           0.999       5.557e-01         -0.5423
 527       2.766e+00       5.670e-01       2.328e-01           0.037          -0.046           0.998       5.400e-01         -0.4902
 528       3.221e+00       5.670e-01       2.089e-01           0.070          -0.056           0.996       4.936e-01         -0.4509
 529       3.621e+00       5.671e-01       1.709e-01           0.124          -0.071           0.990       4.199e-01         -0.4013
 530       3.943e+00       5.671e-01       1.198e-01           0.198          -0.090           0.976       3.232e-01         -0.2910
 531       4.169e+00       5.671e-01       6.691e-02           0.271          -0.108           0.956       2.059e-01         -0.0674
 532       4.285e+00       5.671e-01       3.188e-02           0.330          -0.121           0.936       7.150e-02          0.1108
Strip 21
 533       4.555e+00       1.698e+00       8.117e-02          -0.278           0.110          -0.954       6.563e-02          0.3796
 534       4.446e+00       1.698e+00       1.052e-01          -0.190           0.089          -0.978       1.884e-01          0.4336
 535       4.233e+00       1.697e+00       1.241e-01          -0.023           0.049          -0.999       2.956e-01          0.4694
 536       3.929e+00       1.698e+00       1.073e-01           0.114           0.012          -0.993       3.915e-01          0.4180
 537       3.552e+00       1.698e+00       4.226e-02           0.216          -0.017          -0.976       4.714e-01          0.3005
 538       3.124e+00       1.698e+00      -4.778e-02           0.197          -0.011          -0.980       5.147e-01          0.1274
 539       2.670e+00       1.698e+00      -1.089e-01           0.070           0.031          -0.997       5.213e-01          0.0702
 540       2.215e+00       1.698e+00      -1.292e-01           0.018           0.050          -0.999       5.054e-01          0.1368
 541       1.787e+00       1.698e+00      -1.293e-01          -0.019           0.064          -0.998       4.612e-01          0.2216
 542       1.410e+00       1.698e+00      -1.145e-01          -0.062           0.081          -0.995       3.910e-01          0.3312
 543       1.107e+00       1.698e+00      -8.501e-02          -0.141           0.113          -0.984       3.001e-01          0.5093
 544       8.937e-01       1.698e+00      -3.836e-02          -0.317           0.187          -0.930       1.982e-01          0.7911
 545       7.842e-01       1.698e+00       3.293e-02          -0.782           0.371          -0.500       1.250e-01          0.2198
 546       7.842e-01       1.697e+00       1.202e-01          -0.797           0.332           0.505       1.242e-01         -3.0103
 547       8.937e-01       1.697e+00       1.900e-01          -0.300           0.094           0.949       1.941e-01         -3.2854
 548       1.107e+00       1.697e+00       2.337e-01          -0.135           0.021           0.991       2.979e-01         -1.6379
 549       1.410e+00       1.697e+00       2.628e-01          -0.065          -0.008           0.998       3.897e-01         -1.0732
 550       1.787e+00       1.697e+00       2.797e-01          -0.027          -0.024           0.999       4.603e-01         -0.7963
 551       2.215e+00       1.697e+00       2.862e-01          -0.004          -0.032           0.999       5.047e-01         -0.6387
 552       2.670e+00       1.697e+00       2.838e-01           0.015          -0.039           0.999       5.200e-01         -0.5432
 553       3.124e+00       1.697e+00       2.721e-01           0.037          -0.046           0.998       5.053e-01         -0.4798
 554       3.552e+00       1.697e+00       2.496e-01           0.070          -0.056           0.996       4.619e-01         -0.4351
 555       3.929e+00       1.697e+00       2.138e-01           0.124          -0.071           0.990       3.929e-01         -0.3851
 556       4.233e+00       1.697e+00       1.656e-01           0.198          -0.090           0.976       3.024e-01         -0.2775
 557       4.446e+00       1.697e+00       1.159e-01           0.271          -0.108           0.956       1.926e-01         -0.0579
 558       4.555e+00       1.698e+00       8.286e-02           0.330          -0.121           0.936       6.689e-02          0.1170
Strip 22
 559       4.823e+00       2.816e+00       1.317e-01          -0.278           0.110          -0.954       6.079e-02          0.3800
 560       4.720e+00       2.816e+00       1.543e-01          -0.190           0.089          -0.978       1.745e-01          0.4340
 561       4.520e+00       2.816e+00       1.720e-01          -0.023           0.049          -0.999       2.738e-01          0.4700
 562       4.235e+00       2.816e+00       1.562e-01           0.114           0.012          -0.993       3.627e-01          0.4198
 563       3.881e+00       2.817e+00       9.519e-02           0.216          -0.017          -0.976       4.366e-01          0.3052
[...]
 853       5.928e+00       1.233e+01       4.730e-01          -0.019           0.064          -0.998       8.607e-02          0.2983
 854       5.769e+00       1.233e+01       4.792e-01          -0.062           0.081          -0.995       7.293e-02          0.4389
 855       5.641e+00       1.233e+01       4.916e-01          -0.141           0.114          -0.983       5.592e-02          0.6418
 856       5.551e+00       1.233e+01       5.113e-01          -0.319           0.188          -0.929       3.683e-02          0.8046
 857       5.505e+00       1.233e+01       5.413e-01          -0.787           0.373          -0.492       2.320e-02         -0.6957
 858       5.505e+00       1.233e+01       5.780e-01          -0.792           0.330           0.513       2.330e-02         -4.9240
 859       5.551e+00       1.233e+01       6.074e-01          -0.299           0.094           0.950       3.638e-02         -4.5761
 860       5.641e+00       1.233e+01       6.258e-01          -0.135           0.021           0.991       5.571e-02         -2.1700
 861       5.769e+00       1.233e+01       6.381e-01          -0.065          -0.008           0.998       7.280e-02         -1.3617
 862       5.928e+00       1.233e+01       6.452e-01          -0.027          -0.024           0.999       8.594e-02         -0.9663
 863       6.109e+00       1.233e+01       6.480e-01          -0.004          -0.032           0.999       9.420e-02         -0.7396
 864       6.300e+00       1.233e+01       6.469e-01           0.015          -0.039           0.999       9.703e-02         -0.6014
 865       6.492e+00       1.233e+01       6.420e-01           0.037          -0.046           0.998       9.427e-02         -0.5129
 866       6.673e+00       1.233e+01       6.325e-01           0.070          -0.056           0.996       8.615e-02         -0.4564
 867       6.831e+00       1.233e+01       6.175e-01           0.124          -0.071           0.990       7.325e-02         -0.4009
 868       6.959e+00       1.233e+01       5.972e-01           0.198          -0.090           0.976       5.635e-02         -0.2882
 869       7.049e+00       1.233e+01       5.762e-01           0.272          -0.108           0.956       3.588e-02         -0.0619
 870       7.095e+00       1.233e+01       5.623e-01           0.331          -0.121           0.936       1.246e-02          0.1183
Strip 34
 871       7.204e+00       1.279e+01       5.822e-01          -0.279           0.110          -0.954       9.522e-03          0.3441
 872       7.161e+00       1.278e+01       5.917e-01          -0.190           0.090          -0.978       2.736e-02          0.3930
 873       7.076e+00       1.278e+01       5.992e-01          -0.023           0.049          -0.999       4.297e-02          0.4229
 874       6.956e+00       1.278e+01       5.925e-01           0.114           0.012          -0.993       5.699e-02          0.3712
 875       6.806e+00       1.279e+01       5.668e-01           0.215          -0.017          -0.976       6.868e-02          0.2613
 876       6.636e+00       1.279e+01       5.311e-01           0.196          -0.011          -0.980       7.500e-02          0.1068
 877       6.456e+00       1.279e+01       5.069e-01           0.070           0.031          -0.997       7.586e-02          0.0689
 878       6.275e+00       1.279e+01       4.988e-01           0.018           0.050          -0.999       7.350e-02          0.1529
 879       6.106e+00       1.279e+01       4.988e-01          -0.019           0.064          -0.998       6.705e-02          0.2623
 880       5.956e+00       1.279e+01       5.046e-01          -0.062           0.081          -0.995       5.681e-02          0.4050
 881       5.835e+00       1.279e+01       5.163e-01          -0.141           0.114          -0.983       4.355e-02          0.6130
 882       5.751e+00       1.279e+01       5.348e-01          -0.319           0.188          -0.929       2.868e-02          0.8037
 883       5.708e+00       1.279e+01       5.631e-01          -0.787           0.373          -0.491       1.806e-02         -0.5697
 884       5.708e+00       1.278e+01       5.977e-01          -0.792           0.329           0.514       1.816e-02         -4.6526
 885       5.751e+00       1.278e+01       6.253e-01          -0.299           0.094           0.950       2.835e-02         -4.3824
 886       5.835e+00       1.278e+01       6.426e-01          -0.134           0.021           0.991       4.341e-02         -2.0773
 887       5.956e+00       1.278e+01       6.542e-01          -0.065          -0.008           0.998       5.672e-02         -1.2960
 888       6.106e+00       1.278e+01       6.609e-01          -0.027          -0.024           0.999       6.695e-02         -0.9119
 889       6.275e+00       1.278e+01       6.635e-01          -0.004          -0.032           0.999       7.338e-02         -0.6922
 890       6.456e+00       1.278e+01       6.625e-01           0.015          -0.039           0.999       7.559e-02         -0.5604
 891       6.636e+00       1.278e+01       6.579e-01           0.037          -0.046           0.998       7.344e-02         -0.4794
 892       6.806e+00       1.278e+01       6.490e-01           0.070          -0.056           0.996       6.710e-02         -0.4318
 893       6.956e+00       1.278e+01       6.348e-01           0.124          -0.071           0.990       5.706e-02         -0.3861
 894       7.076e+00       1.278e+01       6.157e-01           0.198          -0.090           0.976       4.389e-02         -0.2825
 895       7.161e+00       1.278e+01       5.959e-01           0.272          -0.108           0.956       2.795e-02         -0.0639
 896       7.204e+00       1.279e+01       5.829e-01           0.331          -0.121           0.936       9.700e-03          0.1126
Strip 35
 897       7.292e+00       1.315e+01       5.988e-01          -0.279           0.110          -0.954       7.095e-03          0.3082
 898       7.251e+00       1.315e+01       6.079e-01          -0.190           0.090          -0.978       2.039e-02          0.3526
 899       7.171e+00       1.315e+01       6.150e-01          -0.023           0.049          -0.999       3.203e-02          0.3776
 900       7.056e+00       1.315e+01       6.087e-01           0.114           0.012          -0.993       4.248e-02          0.3235
 901       6.914e+00       1.315e+01       5.842e-01           0.215          -0.017          -0.976       5.120e-02          0.2116
 902       6.753e+00       1.316e+01       5.503e-01           0.196          -0.011          -0.981       5.591e-02          0.0531
 903       6.582e+00       1.316e+01       5.273e-01           0.070           0.031          -0.997       5.654e-02          0.0106
 904       6.410e+00       1.316e+01       5.197e-01           0.018           0.050          -0.999       5.478e-02          0.0917
 905       6.249e+00       1.316e+01       5.197e-01          -0.019           0.064          -0.998       4.997e-02          0.2001
 906       6.107e+00       1.316e+01       5.252e-01          -0.062           0.081          -0.995       4.234e-02          0.3446
 907       5.993e+00       1.316e+01       5.363e-01          -0.141           0.114          -0.983       3.245e-02          0.5599
 908       5.912e+00       1.316e+01       5.539e-01          -0.319           0.188          -0.929       2.137e-02          0.7929
 909       5.871e+00       1.315e+01       5.807e-01          -0.787           0.373          -0.491       1.346e-02         -0.3786
 910       5.871e+00       1.315e+01       6.135e-01          -0.791           0.329           0.515       1.355e-02         -4.2320
 911       5.912e+00       1.315e+01       6.398e-01          -0.299           0.094           0.950       2.114e-02         -4.0787
 912       5.993e+00       1.315e+01       6.562e-01          -0.134           0.021           0.991       3.236e-02         -1.9276
 913       6.107e+00       1.315e+01       6.672e-01          -0.065          -0.008           0.998       4.228e-02         -1.1886
 914       6.249e+00       1.315e+01       6.735e-01          -0.027          -0.024           0.999       4.990e-02         -0.8239
 915       6.410e+00       1.315e+01       6.760e-01          -0.004          -0.032           0.999       5.470e-02         -0.6184
 916       6.582e+00       1.315e+01       6.751e-01           0.015          -0.039           0.999       5.634e-02         -0.5009
 917       6.753e+00       1.315e+01       6.707e-01           0.037          -0.046           0.998       5.473e-02         -0.4352
 918       6.914e+00       1.315e+01       6.622e-01           0.070          -0.056           0.996       5.001e-02         -0.4038
 919       7.056e+00       1.315e+01       6.487e-01           0.124          -0.071           0.990       4.252e-02         -0.3750
 920       7.171e+00       1.315e+01       6.306e-01           0.198          -0.090           0.976       3.271e-02         -0.2864
 921       7.251e+00       1.315e+01       6.119e-01           0.272          -0.108           0.956       2.082e-02         -0.0793
 922       7.292e+00       1.315e+01       5.995e-01           0.331          -0.121           0.936       7.228e-03          0.0924
Strip 36
 923       7.359e+00       1.343e+01       6.114e-01          -0.279           0.110          -0.954       4.897e-03          0.2059
 924       7.319e+00       1.343e+01       6.201e-01          -0.190           0.090          -0.978       1.407e-02          0.2415
 925       7.242e+00       1.343e+01       6.269e-01          -0.023           0.049          -0.999       2.211e-02          0.2606
 926       7.132e+00       1.343e+01       6.208e-01           0.114           0.012          -0.993       2.933e-02          0.2120
 927       6.996e+00       1.343e+01       5.974e-01           0.215          -0.017          -0.976       3.535e-02          0.1121
 928       6.841e+00       1.343e+01       5.649e-01           0.196          -0.011          -0.981       3.860e-02         -0.0356
 929       6.677e+00       1.343e+01       5.428e-01           0.070           0.031          -0.997       3.904e-02         -0.0757
 930       6.512e+00       1.344e+01       5.355e-01           0.018           0.050          -0.999       3.782e-02         -0.0010
 931       6.357e+00       1.344e+01       5.354e-01          -0.019           0.064          -0.998       3.449e-02          0.0971
 932       6.221e+00       1.343e+01       5.408e-01          -0.062           0.081          -0.995       2.922e-02          0.2352
 933       6.111e+00       1.343e+01       5.514e-01          -0.141           0.114          -0.983       2.240e-02          0.4571
 934       6.034e+00       1.343e+01       5.683e-01          -0.319           0.188          -0.929       1.475e-02          0.7468
 935       5.995e+00       1.343e+01       5.940e-01          -0.788           0.373          -0.490       9.285e-03         -0.1357
 936       5.995e+00       1.343e+01       6.255e-01          -0.791           0.329           0.516       9.354e-03         -3.6484
 937       6.034e+00       1.343e+01       6.507e-01          -0.299           0.094           0.950       1.460e-02         -3.6435
 938       6.111e+00       1.343e+01       6.665e-01          -0.134           0.021           0.991       2.234e-02         -1.7037
 939       6.221e+00       1.343e+01       6.770e-01          -0.065          -0.008           0.998       2.919e-02         -1.0281
 940       6.357e+00       1.343e+01       6.831e-01          -0.027          -0.024           0.999       3.445e-02         -0.7009
 941       6.512e+00       1.343e+01       6.855e-01          -0.004          -0.032           0.999       3.776e-02         -0.5295
 942       6.677e+00       1.343e+01       6.846e-01           0.015          -0.039           0.999       3.889e-02         -0.4443
 943       6.841e+00       1.343e+01       6.804e-01           0.037          -0.046           0.998       3.778e-02         -0.4080
 944       6.996e+00       1.343e+01       6.723e-01           0.070          -0.056           0.996       3.452e-02         -0.4042
 945       7.132e+00       1.343e+01       6.593e-01           0.124          -0.071           0.990       2.935e-02         -0.4038
 946       7.242e+00       1.343e+01       6.419e-01           0.198          -0.090           0.976       2.257e-02         -0.3423
 947       7.319e+00       1.343e+01       6.239e-01           0.272          -0.108           0.956       1.437e-02         -0.1548
 948       7.359e+00       1.343e+01       6.120e-01           0.331          -0.121           0.936       4.989e-03          0.0099
Strip 37
 949       7.403e+00       1.362e+01       6.199e-01          -0.279           0.110          -0.954       2.869e-03         -0.2774
 950       7.365e+00       1.362e+01       6.283e-01          -0.190           0.090          -0.978       8.243e-03         -0.2738
 951       7.290e+00       1.362e+01       6.349e-01          -0.023           0.049          -0.999       1.295e-02         -0.2239
 952       7.183e+00       1.362e+01       6.290e-01           0.114           0.012          -0.993       1.718e-02         -0.1612
 953       7.051e+00       1.362e+01       6.062e-01           0.215          -0.017          -0.976       2.071e-02         -0.1304
 954       6.900e+00       1.362e+01       5.746e-01           0.196          -0.011          -0.981       2.262e-02         -0.1854
 955       6.741e+00       1.362e+01       5.531e-01           0.070           0.031          -0.997       2.287e-02         -0.1947
 956       6.581e+00       1.362e+01       5.460e-01           0.018           0.050          -0.999       2.215e-02         -0.1252
 957       6.430e+00       1.362e+01       5.460e-01          -0.019           0.064          -0.998       2.021e-02         -0.0498
 958       6.298e+00       1.362e+01       5.512e-01          -0.062           0.081          -0.995       1.712e-02          0.0544
 959       6.191e+00       1.362e+01       5.615e-01          -0.141           0.114          -0.983       1.312e-02          0.2480
 960       6.116e+00       1.362e+01       5.779e-01          -0.319           0.188          -0.929       8.637e-03          0.5808
 961       6.078e+00       1.362e+01       6.029e-01          -0.788           0.373          -0.489       5.437e-03          0.0756
 962       6.078e+00       1.362e+01       6.336e-01          -0.791           0.329           0.516       5.482e-03         -2.8996
 963       6.116e+00       1.362e+01       6.580e-01          -0.298           0.093           0.950       8.553e-03         -3.0418
 964       6.191e+00       1.362e+01       6.734e-01          -0.134           0.021           0.991       1.309e-02         -1.3821
 965       6.298e+00       1.362e+01       6.836e-01          -0.065          -0.008           0.998       1.710e-02         -0.8245
 966       6.430e+00       1.362e+01       6.895e-01          -0.027          -0.024           0.999       2.018e-02         -0.5862
 967       6.581e+00       1.362e+01       6.918e-01          -0.004          -0.032           0.999       2.212e-02         -0.4822
 968       6.741e+00       1.362e+01       6.909e-01           0.015          -0.039           0.999       2.278e-02         -0.4493
 969       6.900e+00       1.362e+01       6.869e-01           0.037          -0.046           0.998       2.213e-02         -0.4712
 970       7.051e+00       1.362e+01       6.790e-01           0.070          -0.056           0.996       2.022e-02         -0.5517
 971       7.183e+00       1.362e+01       6.664e-01           0.124          -0.071           0.990       1.719e-02         -0.6679
 972       7.290e+00       1.362e+01       6.495e-01           0.198          -0.090           0.976       1.322e-02         -0.7282
 973       7.365e+00       1.362e+01       6.320e-01           0.272          -0.108           0.956       8.419e-03         -0.6177
 974       7.403e+00       1.362e+01       6.204e-01           0.331          -0.121           0.936       2.922e-03         -0.4847
Strip 38
 975       7.426e+00       1.371e+01       6.241e-01          -0.279           0.110          -0.954       9.444e-04         -0.8633
 976       7.388e+00       1.371e+01       6.324e-01          -0.190           0.090          -0.978       2.714e-03         -0.9395
 977       7.314e+00       1.371e+01       6.389e-01          -0.023           0.049          -0.999       4.264e-03         -0.8861
 978       7.209e+00       1.371e+01       6.331e-01           0.114           0.012          -0.993       5.657e-03         -0.6829
 979       7.078e+00       1.371e+01       6.106e-01           0.215          -0.017          -0.976       6.819e-03         -0.4602
 980       6.930e+00       1.371e+01       5.795e-01           0.196          -0.011          -0.981       7.447e-03         -0.3502
 981       6.772e+00       1.372e+01       5.584e-01           0.070           0.031          -0.997       7.530e-03         -0.2864
 982       6.615e+00       1.372e+01       5.513e-01           0.018           0.050          -0.999       7.294e-03         -0.2129
 983       6.467e+00       1.372e+01       5.513e-01          -0.019           0.064          -0.998       6.653e-03         -0.1507
 984       6.336e+00       1.372e+01       5.564e-01          -0.062           0.081          -0.995       5.636e-03         -0.0707
 985       6.231e+00       1.371e+01       5.666e-01          -0.141           0.114          -0.983       4.320e-03          0.0798
 986       6.157e+00       1.371e+01       5.828e-01          -0.319           0.188          -0.929       2.843e-03          0.3963
 987       6.119e+00       1.371e+01       6.074e-01          -0.788           0.373          -0.489       1.790e-03          0.2777
 988       6.119e+00       1.371e+01       6.376e-01          -0.791           0.329           0.516       1.805e-03         -2.0060
 989       6.157e+00       1.371e+01       6.617e-01          -0.298           0.093           0.950       2.816e-03         -2.2909
 990       6.231e+00       1.371e+01       6.768e-01          -0.134           0.021           0.991       4.310e-03         -1.0360
 991       6.336e+00       1.371e+01       6.869e-01          -0.065          -0.008           0.998       5.630e-03         -0.6630
 992       6.467e+00       1.371e+01       6.927e-01          -0.027          -0.024           0.999       6.645e-03         -0.5239
 993       6.615e+00       1.371e+01       6.950e-01          -0.004          -0.032           0.999       7.283e-03         -0.4692
 994       6.772e+00       1.371e+01       6.941e-01           0.015          -0.039           0.999       7.501e-03         -0.4569
 995       6.930e+00       1.371e+01       6.901e-01           0.037          -0.046           0.998       7.287e-03         -0.4963
 996       7.078e+00       1.371e+01       6.823e-01           0.070          -0.056           0.996       6.658e-03         -0.6312
 997       7.209e+00       1.371e+01       6.699e-01           0.124          -0.071           0.990       5.661e-03         -0.8766
 998       7.314e+00       1.371e+01       6.533e-01           0.198          -0.090           0.976       4.354e-03         -1.1276
 999       7.388e+00       1.371e+01       6.361e-01           0.272          -0.108           0.956       2.772e-03         -1.1495
1000       7.426e+00       1.371e+01       6.247e-01           0.331          -0.121           0.936       9.621e-04         -1.0753










